data_C60H24N6O6S12_2023-05-30_06:45:18
#******************************************
#
# CIF file created by Zeo++
# Zeo++ is an open source package to
# analyze microporous materials
#
#*******************************************

_cell_length_a		38.8801   
_cell_length_b		39.1787   
_cell_length_c		7   
_cell_angle_alpha		90   
_cell_angle_beta		90   
_cell_angle_gamma		119.667   

_symmetry_space_group_name_H-M		'P1'
_symmetry_Int_Tables_number		1
_symmetry_cell_setting		Monoclinic

loop_
_symmetry_equiv_pos_as_xyz
'+x,+y,+z'

loop_
_atom_site_label
_atom_site_type_symbol
_atom_site_fract_x
_atom_site_fract_y
_atom_site_fract_z
1	C	0.373184	0.674979	0.999995
2	O	0.408124	0.681091	0.999991
3	C	0.341659	0.634133	0.999998
4	C	0.347845	0.604026	0
5	N	0.386956	0.611066	0
6	C	0.301253	0.626883	3e-06
7	O	0.272918	0.591678	5e-06
8	C	0.291489	0.658296	6e-06
9	C	0.254307	0.650715	5e-06
10	N	0.223633	0.61066	0
11	C	0.324535	0.698815	4e-06
12	O	0.316772	0.72598	7e-06
13	C	0.365589	0.707886	0.999999
14	C	0.394718	0.744851	0.999998
15	N	0.388796	0.777664	0
16	H	0.323709	0.574717	1e-06
17	H	0.246423	0.673215	8e-06
18	H	0.424235	0.750129	0.999997
19	C	0.626816	0.325021	0.999995
20	O	0.591876	0.318909	0.999991
21	C	0.658341	0.365867	0.999998
22	C	0.652155	0.395974	0
23	N	0.613044	0.388934	0
24	C	0.698747	0.373117	3e-06
25	O	0.727082	0.408322	5e-06
26	C	0.708511	0.341704	6e-06
27	C	0.745693	0.349285	5e-06
28	N	0.776367	0.38934	0
29	C	0.675465	0.301185	4e-06
30	O	0.683228	0.27402	7e-06
31	C	0.634411	0.292114	0.999999
32	C	0.605282	0.255149	0.999998
33	N	0.611204	0.222336	0
34	H	0.676291	0.425283	1e-06
35	H	0.753577	0.326785	8e-06
36	H	0.575765	0.249871	0.999997
37	C	0.410874	0.587567	0
38	C	0.407153	0.591224	0.192294
39	S	0.428907	0.569852	0.319949
40	C	0.44353	0.555483	0.116774
41	C	0.465289	0.534105	0.121356
42	C	0.477748	0.521865	0.963369
43	C	0.498346	0.501627	0.016393
44	C	0.501189	0.498833	0.208733
45	C	0.521785	0.478597	0.261789
46	C	0.534229	0.466371	0.103771
47	C	0.555972	0.445008	0.102589
48	C	0.568703	0.432499	0.946119
49	C	0.589126	0.412433	0
50	C	0.591943	0.409666	0.193729
51	S	0.569614	0.431606	0.312035
52	S	0.520889	0.479479	0.892618
53	S	0.478644	0.520983	0.332336
54	C	0.431532	0.567271	0.955027
55	H	0.392879	0.605249	0.264737
56	H	0.472709	0.526816	0.816451
57	H	0.52682	0.473649	0.408814
58	H	0.563596	0.437516	0.799273
59	H	0.605871	0.395982	0.272094
60	H	0.437325	0.561578	0.810616
61	C	0.412238	0.824664	0
62	C	0.408589	0.81735	0.192294
63	S	0.429909	0.860096	0.319949
64	C	0.444242	0.888832	0.116774
65	C	0.465567	0.931588	0.121356
66	C	0.477777	0.95607	0.963369
67	C	0.497964	0.996545	0.016393
68	C	0.500752	0.002132	0.208733
69	C	0.520938	0.042605	0.261789
70	C	0.533134	0.067057	0.103771
71	C	0.554444	0.109783	0.102589
72	C	0.566921	0.134799	0.946119
73	C	0.586937	0.174931	0
74	C	0.589697	0.180466	0.193729
75	S	0.567812	0.136588	0.312035
76	S	0.520057	0.040841	0.892618
77	S	0.478657	0.957833	0.332336
78	C	0.432484	0.865256	0.955027
79	H	0.394599	0.789301	0.264737
80	H	0.472838	0.946168	0.816451
81	H	0.525874	0.0525	0.408814
82	H	0.561917	0.124765	0.799273
83	H	0.603348	0.207835	0.272094
84	H	0.438162	0.87664	0.810616
85	C	0.176273	0.587161	0
86	C	0.183643	0.590817	0.192294
87	S	0.14057	0.569444	0.319949
88	C	0.111613	0.555076	0.116774
89	C	0.068529	0.533698	0.121356
90	C	0.04386	0.521457	0.963369
91	C	0.003075	0.501219	0.016393
92	C	0.997445	0.498426	0.208733
93	C	0.956662	0.47819	0.261789
94	C	0.932022	0.465963	0.103771
95	C	0.888969	0.4446	0.102589
96	C	0.863761	0.432093	0.946119
97	C	0.823322	0.412027	0
98	C	0.817744	0.409259	0.193729
99	S	0.861959	0.431197	0.312035
100	S	0.958439	0.479071	0.892618
101	S	0.042084	0.520576	0.332336
102	C	0.13537	0.566864	0.955027
103	H	0.211907	0.604842	0.264737
104	H	0.053838	0.526407	0.816451
105	H	0.946691	0.473243	0.408814
106	H	0.873872	0.437111	0.799273
107	H	0.790166	0.395574	0.272094
108	H	0.123899	0.561173	0.810616
