data_C60H24N6O6S12_2023-05-14_19:39:37
#******************************************
#
# CIF file created by Zeo++
# Zeo++ is an open source package to
# analyze microporous materials
#
#*******************************************

_cell_length_a		38.8801   
_cell_length_b		39.1787   
_cell_length_c		7   
_cell_angle_alpha		90   
_cell_angle_beta		90   
_cell_angle_gamma		119.667   

_symmetry_space_group_name_H-M		'P1'
_symmetry_Int_Tables_number		1
_symmetry_cell_setting		Monoclinic

loop_
_symmetry_equiv_pos_as_xyz
'+x,+y,+z'

loop_
_atom_site_label
_atom_site_type_symbol
_atom_site_fract_x
_atom_site_fract_y
_atom_site_fract_z
1	C	0.373184	0.674979	0.999995
2	O	0.408124	0.681091	0.999991
3	C	0.341659	0.634133	0.999998
4	C	0.347845	0.604026	0
5	N	0.386956	0.611066	0
6	C	0.301253	0.626883	3e-06
7	O	0.272918	0.591678	5e-06
8	C	0.291489	0.658296	6e-06
9	C	0.254307	0.650715	5e-06
10	N	0.223633	0.61066	0
11	C	0.324535	0.698815	4e-06
12	O	0.316772	0.72598	7e-06
13	C	0.365589	0.707886	0.999999
14	C	0.394718	0.744851	0.999998
15	N	0.388796	0.777664	0
16	H	0.323709	0.574717	1e-06
17	H	0.246423	0.673215	8e-06
18	H	0.424235	0.750129	0.999997
19	C	0.626816	0.325021	0.999995
20	O	0.591876	0.318909	0.999991
21	C	0.658341	0.365867	0.999998
22	C	0.652155	0.395974	0
23	N	0.613044	0.388934	0
24	C	0.698747	0.373117	3e-06
25	O	0.727082	0.408322	5e-06
26	C	0.708511	0.341704	6e-06
27	C	0.745693	0.349285	5e-06
28	N	0.776367	0.38934	0
29	C	0.675465	0.301185	4e-06
30	O	0.683228	0.27402	7e-06
31	C	0.634411	0.292114	0.999999
32	C	0.605282	0.255149	0.999998
33	N	0.611204	0.222336	0
34	H	0.676291	0.425283	1e-06
35	H	0.753577	0.326785	8e-06
36	H	0.575765	0.249871	0.999997
37	C	0.410874	0.587567	0
38	C	0.408059	0.590336	0.193729
39	S	0.43039	0.568398	0.312035
40	C	0.444029	0.554994	0.102589
41	C	0.465772	0.533631	0.103771
42	C	0.478216	0.521404	0.261789
43	C	0.498812	0.501168	0.208733
44	C	0.501656	0.498375	0.016393
45	C	0.522255	0.478138	0.963369
46	C	0.534713	0.465897	0.121357
47	C	0.556472	0.444518	0.116774
48	C	0.568468	0.432729	0.955027
49	C	0.589126	0.412433	0
50	C	0.59285	0.408778	0.192294
51	S	0.571098	0.430153	0.31995
52	S	0.521356	0.479018	0.332336
53	S	0.479114	0.520524	0.892618
54	C	0.431297	0.5675	0.946119
55	H	0.394132	0.604021	0.272094
56	H	0.47318	0.526351	0.408814
57	H	0.527294	0.473187	0.816451
58	H	0.562673	0.438419	0.810616
59	H	0.607125	0.394755	0.264737
60	H	0.436402	0.562482	0.799273
61	C	0.412238	0.824664	0
62	C	0.409475	0.819129	0.193729
63	S	0.431359	0.863007	0.312035
64	C	0.44473	0.889812	0.102589
65	C	0.46604	0.932537	0.103771
66	C	0.478237	0.95699	0.261789
67	C	0.498422	0.997462	0.208733
68	C	0.501208	0.00305	0.016393
69	C	0.521396	0.043525	0.963369
70	C	0.533607	0.068006	0.121357
71	C	0.554932	0.110763	0.116774
72	C	0.566692	0.134338	0.955027
73	C	0.586937	0.174931	0
74	C	0.590583	0.182245	0.192294
75	S	0.569262	0.139499	0.31995
76	S	0.520518	0.041762	0.332336
77	S	0.479115	0.958754	0.892618
78	C	0.432254	0.864795	0.946119
79	H	0.395824	0.79176	0.272094
80	H	0.473302	0.947095	0.408814
81	H	0.526334	0.053427	0.816451
82	H	0.561016	0.122955	0.810616
83	H	0.604572	0.210294	0.264737
84	H	0.437261	0.87483	0.799273
85	C	0.176273	0.587161	0
86	C	0.181851	0.589926	0.193729
87	S	0.137636	0.567986	0.312035
88	C	0.110626	0.554586	0.102589
89	C	0.067573	0.533223	0.103771
90	C	0.042933	0.520997	0.261789
91	C	0.00215	0.500761	0.208733
92	C	0.99652	0.497966	0.016393
93	C	0.955735	0.477729	0.963369
94	C	0.931066	0.465488	0.121357
95	C	0.887982	0.44411	0.116774
96	C	0.864226	0.432324	0.955027
97	C	0.823322	0.412027	0
98	C	0.815952	0.408368	0.192294
99	S	0.859026	0.42974	0.31995
100	S	0.957511	0.478611	0.332336
101	S	0.041156	0.520114	0.892618
102	C	0.135834	0.567095	0.946119
103	H	0.209429	0.60361	0.272094
104	H	0.052904	0.525945	0.408814
105	H	0.945757	0.472777	0.816451
106	H	0.875696	0.438017	0.810616
107	H	0.787688	0.394343	0.264737
108	H	0.125723	0.56208	0.799273
