data_C90H36N12O6S18_2023-05-13_23:16:38
#******************************************
#
# CIF file created by Zeo++
# Zeo++ is an open source package to
# analyze microporous materials
#
#*******************************************

_cell_length_a		53.6885   
_cell_length_b		53.9869   
_cell_length_c		7   
_cell_angle_alpha		90   
_cell_angle_beta		90   
_cell_angle_gamma		119.758   

_symmetry_space_group_name_H-M		'P1'
_symmetry_Int_Tables_number		1
_symmetry_cell_setting		Monoclinic

loop_
_symmetry_equiv_pos_as_xyz
'+x,+y,+z'

loop_
_atom_site_label
_atom_site_type_symbol
_atom_site_fract_x
_atom_site_fract_y
_atom_site_fract_z
1	C	0.362204	0.672704	0.999995
2	O	0.387515	0.677144	0.999991
3	C	0.339319	0.643035	0.999998
4	C	0.343759	0.621166	0
5	N	0.372092	0.62628	0
6	C	0.310048	0.637769	3e-06
7	O	0.289482	0.612197	5e-06
8	C	0.30302	0.660586	6e-06
9	C	0.276083	0.65508	5e-06
10	N	0.253815	0.625985	0
11	C	0.327005	0.690018	4e-06
12	O	0.32142	0.70975	7e-06
13	C	0.356748	0.696607	0.999999
14	C	0.377892	0.723457	0.999998
15	N	0.373648	0.747292	0
16	H	0.32624	0.599877	1e-06
17	H	0.270404	0.671423	8e-06
18	H	0.399274	0.727291	0.999997
19	C	0.637796	0.327296	0.999995
20	O	0.612485	0.322856	0.999991
21	C	0.660681	0.356965	0.999998
22	C	0.656241	0.378834	0
23	N	0.627908	0.37372	0
24	C	0.689952	0.362231	3e-06
25	O	0.710518	0.387803	5e-06
26	C	0.69698	0.339414	6e-06
27	C	0.723917	0.34492	5e-06
28	N	0.746185	0.374015	0
29	C	0.672995	0.309982	4e-06
30	O	0.67858	0.29025	7e-06
31	C	0.643252	0.303393	0.999999
32	C	0.622108	0.276543	0.999998
33	N	0.626352	0.252708	0
34	H	0.67376	0.400123	1e-06
35	H	0.729596	0.328577	8e-06
36	H	0.600726	0.272709	0.999997
37	C	0.389381	0.609211	0
38	C	0.404012	0.594767	0.031861
39	C	0.407242	0.591578	0.231623
40	C	0.422923	0.576097	0.319705
41	C	0.42597	0.57309	0.512241
42	C	0.44115	0.558103	0.548027
43	C	0.449329	0.550028	0.382406
44	C	0.464946	0.534611	0.373579
45	N	0.472773	0.526882	0.531005
46	C	0.487336	0.512505	0.486878
47	C	0.498776	0.501211	0.617922
48	C	0.513046	0.487122	0.553833
49	C	0.51627	0.483939	0.359532
50	C	0.504832	0.495232	0.228507
51	C	0.490562	0.50932	0.292574
52	S	0.474729	0.524952	0.16474
53	N	0.530825	0.469569	0.315501
54	C	0.538669	0.461824	0.472541
55	C	0.5543	0.446392	0.469653
56	C	0.563834	0.436978	0.622095
57	C	0.578624	0.422376	0.563457
58	C	0.58002	0.420998	0.367657
59	C	0.594853	0.406354	0.256837
60	C	0.608123	0.393252	0.346991
61	S	0.622189	0.379365	0.187341
62	C	0.610619	0.390789	0
63	C	0.596355	0.404871	0.053523
64	S	0.563603	0.437207	0.257032
65	S	0.528885	0.471484	0.68168
66	S	0.438309	0.560908	0.18537
67	C	0.394827	0.603835	0.34102
68	S	0.379486	0.618981	0.203416
69	H	0.411969	0.586911	0.918462
70	H	0.417901	0.581056	0.624178
71	H	0.44592	0.553394	0.689569
72	H	0.496357	0.503598	0.769801
73	H	0.507256	0.492839	0.076613
74	H	0.560527	0.440244	0.770587
75	H	0.58761	0.413504	0.662453
76	H	0.610464	0.390941	0.498201
77	H	0.587473	0.413641	0.952808
78	H	0.393796	0.604853	0.494777
79	C	0.390686	0.781431	0
80	C	0.405105	0.81032	0.031861
81	C	0.408287	0.816697	0.231623
82	C	0.423741	0.847659	0.319705
83	C	0.426743	0.853675	0.512241
84	C	0.441702	0.883648	0.548027
85	C	0.449763	0.899798	0.382406
86	C	0.465153	0.930634	0.373579
87	N	0.472867	0.94609	0.531005
88	C	0.487219	0.974845	0.486878
89	C	0.498493	0.997433	0.617922
90	C	0.512556	0.02561	0.553833
91	C	0.515734	0.031976	0.359532
92	C	0.504461	0.009391	0.228507
93	C	0.490399	0.981215	0.292574
94	S	0.474795	0.949951	0.16474
95	N	0.530078	0.060716	0.315501
96	C	0.537809	0.076205	0.472541
97	C	0.553214	0.107069	0.469653
98	C	0.56261	0.125896	0.622095
99	C	0.577187	0.1551	0.563457
100	C	0.578562	0.157856	0.367657
101	C	0.59318	0.187145	0.256837
102	C	0.606258	0.213347	0.346991
103	S	0.620121	0.241122	0.187341
104	C	0.608717	0.218275	0
105	C	0.59466	0.19011	0.053523
106	S	0.562382	0.125439	0.257032
107	S	0.528167	0.056886	0.68168
108	S	0.438903	0.878039	0.18537
109	C	0.396053	0.792184	0.34102
110	S	0.380934	0.761892	0.203416
111	H	0.412946	0.826031	0.918462
112	H	0.418791	0.837742	0.624178
113	H	0.446403	0.893066	0.689569
114	H	0.49611	0.992658	0.769801
115	H	0.50685	0.014177	0.076613
116	H	0.559351	0.119366	0.770587
117	H	0.586043	0.172844	0.662453
118	H	0.608565	0.217969	0.498201
119	H	0.585906	0.172572	0.952808
120	H	0.395037	0.790147	0.494777
121	C	0.219487	0.608916	0
122	C	0.190438	0.594471	0.031861
123	C	0.184025	0.591282	0.231623
124	C	0.152891	0.575801	0.319705
125	C	0.146842	0.572793	0.512241
126	C	0.116702	0.557806	0.548027
127	C	0.100463	0.549731	0.382406
128	C	0.069456	0.534313	0.373579
129	N	0.053914	0.526585	0.531005
130	C	0.024999	0.512208	0.486878
131	C	0.002286	0.500914	0.617922
132	C	0.973952	0.486825	0.553833
133	C	0.967551	0.483642	0.359532
134	C	0.990261	0.494935	0.228507
135	C	0.018594	0.509022	0.292574
136	S	0.050031	0.524655	0.16474
137	N	0.938652	0.469273	0.315501
138	C	0.923077	0.461528	0.472541
139	C	0.892041	0.446096	0.469653
140	C	0.87311	0.436683	0.622095
141	C	0.843744	0.422081	0.563457
142	C	0.840972	0.420703	0.367657
143	C	0.811521	0.406059	0.256837
144	C	0.785174	0.392958	0.346991
145	S	0.757244	0.379071	0.187341
146	C	0.780219	0.390494	0
147	C	0.80854	0.404576	0.053523
148	S	0.873569	0.436911	0.257032
149	S	0.942503	0.471188	0.68168
150	S	0.122343	0.560611	0.18537
151	C	0.208675	0.603539	0.34102
152	S	0.239134	0.618685	0.203416
153	H	0.174639	0.586615	0.918462
154	H	0.162863	0.58076	0.624178
155	H	0.107232	0.553097	0.689569
156	H	0.007087	0.503301	0.769801
157	H	0.985449	0.492542	0.076613
158	H	0.879677	0.439949	0.770587
159	H	0.825901	0.41321	0.662453
160	H	0.780526	0.390647	0.498201
161	H	0.826175	0.413345	0.952808
162	H	0.210722	0.604557	0.494777
