data_C84H48N12O6_2023-05-10_23:02:07
#******************************************
#
# CIF file created by Zeo++
# Zeo++ is an open source package to
# analyze microporous materials
#
#*******************************************

_cell_length_a		43.0525   
_cell_length_b		43.3511   
_cell_length_c		7   
_cell_angle_alpha		90   
_cell_angle_beta		90   
_cell_angle_gamma		119.699   

_symmetry_space_group_name_H-M		'P1'
_symmetry_Int_Tables_number		1
_symmetry_cell_setting		Monoclinic

loop_
_symmetry_equiv_pos_as_xyz
'+x,+y,+z'

loop_
_atom_site_label
_atom_site_type_symbol
_atom_site_fract_x
_atom_site_fract_y
_atom_site_fract_z
1	C	0.369327	0.674181	0.999995
2	O	0.400884	0.679707	0.999991
3	C	0.340833	0.637255	0.999998
4	C	0.346402	0.610037	0
5	N	0.381727	0.616402	0
6	C	0.304338	0.630701	3e-06
7	O	0.278729	0.598874	5e-06
8	C	0.29554	0.659099	6e-06
9	C	0.261956	0.652246	5e-06
10	N	0.234231	0.616035	0
11	C	0.325406	0.69573	4e-06
12	O	0.318412	0.720288	7e-06
13	C	0.362487	0.703931	0.999999
14	C	0.388815	0.737349	0.999998
15	N	0.383486	0.767013	0
16	H	0.324588	0.58354	1e-06
17	H	0.25485	0.672587	8e-06
18	H	0.415474	0.742121	0.999997
19	C	0.630673	0.325819	0.999995
20	O	0.599116	0.320293	0.999991
21	C	0.659167	0.362745	0.999998
22	C	0.653598	0.389963	0
23	N	0.618273	0.383598	0
24	C	0.695662	0.369299	3e-06
25	O	0.721271	0.401126	5e-06
26	C	0.70446	0.340901	6e-06
27	C	0.738044	0.347754	5e-06
28	N	0.765769	0.383965	0
29	C	0.674594	0.30427	4e-06
30	O	0.681588	0.279712	7e-06
31	C	0.637513	0.296069	0.999999
32	C	0.611185	0.262651	0.999998
33	N	0.616514	0.232987	0
34	H	0.675412	0.41646	1e-06
35	H	0.74515	0.327413	8e-06
36	H	0.584526	0.257879	0.999997
37	C	0.596687	0.404843	0
38	C	0.57203	0.413292	0.945776
39	C	0.574596	0.441858	0.06522
40	C	0.552845	0.459171	0.052427
41	C	0.543614	0.467311	0.87767
42	N	0.52346	0.483101	0.855475
43	C	0.510943	0.491954	0.011783
44	C	0.519065	0.484549	0.196221
45	C	0.540045	0.46813	0.213821
46	C	0.50642	0.493318	0.359621
47	C	0.485692	0.509515	0.342337
48	C	0.477406	0.517099	0.161483
49	C	0.456392	0.533484	0.144083
50	C	0.447779	0.541141	0.964941
51	C	0.425965	0.558278	0.944869
52	C	0.399976	0.549274	0.813593
53	C	0.382773	0.571983	0.835409
54	C	0.403313	0.595157	0
55	C	0.42782	0.586961	0.060491
56	C	0.461182	0.53184	0.808935
57	N	0.481477	0.516018	0.820435
58	C	0.489912	0.508406	0.99424
59	C	0.601163	0.450535	0.192413
60	C	0.618086	0.427725	0.163564
61	H	0.552789	0.400831	0.832273
62	H	0.552517	0.461501	0.743994
63	H	0.546133	0.462024	0.354969
64	H	0.512599	0.4876	0.501499
65	H	0.476066	0.516144	0.471036
66	H	0.446436	0.540012	0.271857
67	H	0.391705	0.528544	0.707589
68	H	0.386234	0.587415	0.70552
69	H	0.354298	0.555616	0.868402
70	H	0.446526	0.599669	0.1759
71	H	0.456201	0.537108	0.66362
72	H	0.610006	0.47112	0.299551
73	H	0.646404	0.444043	0.127006
74	H	0.61518	0.412077	0.291815
75	C	0.594572	0.190131	0
76	C	0.586239	0.157319	0.945776
77	C	0.557546	0.131468	0.06522
78	C	0.540297	0.092723	0.052427
79	C	0.53218	0.075491	0.87767
80	N	0.516451	0.039842	0.855475
81	C	0.507639	0.018649	0.011783
82	C	0.515024	0.034052	0.196221
83	C	0.53138	0.071143	0.213821
84	C	0.506297	0.012814	0.359621
85	C	0.490162	0.976193	0.342337
86	C	0.482599	0.960451	0.161483
87	C	0.466276	0.923357	0.144083
88	C	0.458642	0.907219	0.964941
89	C	0.44157	0.868588	0.944869
90	C	0.450766	0.851804	0.813593
91	C	0.428073	0.8122	0.835409
92	C	0.404684	0.809503	0
93	C	0.412763	0.841914	0.060491
94	C	0.467898	0.929735	0.808935
95	N	0.483659	0.965555	0.820435
96	C	0.491249	0.981472	0.99424
97	C	0.548675	0.149147	0.192413
98	C	0.571471	0.188574	0.163564
99	H	0.598865	0.150655	0.832273
100	H	0.53796	0.090082	0.743994
101	H	0.537473	0.083241	0.354969
102	H	0.512	0.024616	0.501499
103	H	0.483565	0.960073	0.471036
104	H	0.459783	0.907011	0.271857
105	H	0.471627	0.86422	0.707589
106	H	0.412559	0.800287	0.70552
107	H	0.444675	0.800274	0.868402
108	H	0.399893	0.847804	0.1759
109	H	0.462639	0.919566	0.66362
110	H	0.527956	0.137442	0.299551
111	H	0.554918	0.200394	0.127006
112	H	0.587198	0.201251	0.291815
113	C	0.808186	0.404476	0
114	C	0.841176	0.428838	0.945776
115	C	0.867302	0.426124	0.06522
116	C	0.906303	0.447556	0.052427
117	C	0.92365	0.456647	0.87767
118	N	0.959533	0.476506	0.855475
119	C	0.980862	0.488846	0.011783
120	C	0.965355	0.480849	0.196221
121	C	0.92802	0.460176	0.213821
122	C	0.986728	0.493317	0.359621
123	C	0.02359	0.513742	0.342337
124	C	0.03944	0.5219	0.161483
125	C	0.076777	0.542608	0.144083
126	C	0.093024	0.55109	0.964941
127	C	0.131909	0.572584	0.944869
128	C	0.148703	0.598371	0.813593
129	C	0.188599	0.615267	0.835409
130	C	0.191448	0.59479	0
131	C	0.158861	0.570574	0.060491
132	C	0.070364	0.537875	0.808935
133	N	0.034309	0.517877	0.820435
134	C	0.018283	0.509571	0.99424
135	C	0.849607	0.399768	0.192413
136	C	0.809888	0.38315	0.163564
137	H	0.84779	0.447964	0.832273
138	H	0.908967	0.447867	0.743994
139	H	0.915838	0.454185	0.354969
140	H	0.974846	0.487233	0.501499
141	H	0.039813	0.523233	0.471036
142	H	0.093226	0.552426	0.271857
143	H	0.136112	0.606686	0.707589
144	H	0.200652	0.611747	0.70552
145	H	0.200471	0.64356	0.868402
146	H	0.153026	0.551977	0.1759
147	H	0.080604	0.542775	0.66362
148	H	0.861483	0.390888	0.299551
149	H	0.798122	0.355012	0.127006
150	H	0.797067	0.386122	0.291815
