data_C60H24N12O6S9_2023-05-12_14:30:56
#******************************************
#
# CIF file created by Zeo++
# Zeo++ is an open source package to
# analyze microporous materials
#
#*******************************************

_cell_length_a		36.2458   
_cell_length_b		36.5444   
_cell_length_c		7   
_cell_angle_alpha		90   
_cell_angle_beta		90   
_cell_angle_gamma		119.643   

_symmetry_space_group_name_H-M		'P1'
_symmetry_Int_Tables_number		1
_symmetry_cell_setting		Monoclinic

loop_
_symmetry_equiv_pos_as_xyz
'+x,+y,+z'

loop_
_atom_site_label
_atom_site_type_symbol
_atom_site_fract_x
_atom_site_fract_y
_atom_site_fract_z
1	C	0.376076	0.675576	0.999995
2	O	0.413552	0.682127	0.999991
3	C	0.342281	0.631796	0.999998
4	C	0.348932	0.599527	0
5	N	0.390883	0.607073	0
6	C	0.298942	0.624025	3e-06
7	O	0.268566	0.586292	5e-06
8	C	0.288452	0.657695	6e-06
9	C	0.248572	0.64957	5e-06
10	N	0.215689	0.606637	0
11	C	0.323878	0.701125	4e-06
12	O	0.315538	0.73024	7e-06
13	C	0.367912	0.710847	0.999999
14	C	0.399139	0.750467	0.999998
15	N	0.392769	0.785637	0
16	H	0.323057	0.568112	1e-06
17	H	0.240103	0.673686	8e-06
18	H	0.430798	0.756124	0.999997
19	C	0.623924	0.324424	0.999995
20	O	0.586448	0.317873	0.999991
21	C	0.657719	0.368204	0.999998
22	C	0.651068	0.400473	0
23	N	0.609117	0.392927	0
24	C	0.701058	0.375975	3e-06
25	O	0.731434	0.413708	5e-06
26	C	0.711548	0.342305	6e-06
27	C	0.751428	0.35043	5e-06
28	N	0.784311	0.393363	0
29	C	0.676122	0.298875	4e-06
30	O	0.684462	0.26976	7e-06
31	C	0.632088	0.289153	0.999999
32	C	0.600861	0.249533	0.999998
33	N	0.607231	0.214363	0
34	H	0.676943	0.431888	1e-06
35	H	0.759897	0.326314	8e-06
36	H	0.569202	0.243876	0.999997
37	C	0.583449	0.418115	0
38	C	0.608847	0.444111	0.857653
39	S	0.593484	0.479684	0.792522
40	C	0.552502	0.460037	0.955471
41	C	0.525218	0.478921	0.971659
42	C	0.508584	0.489647	0.811998
43	C	0.482062	0.507713	0.826962
44	C	0.469455	0.516498	0.003374
45	C	0.442338	0.535303	0.016081
46	C	0.451867	0.57586	0.970819
47	C	0.416551	0.581885	0
48	C	0.381119	0.546481	0.064126
49	S	0.390582	0.50523	0.088836
50	C	0.485186	0.506775	0.170976
51	N	0.478044	0.513157	0.353274
52	S	0.503764	0.496307	0.490305
53	N	0.525578	0.480251	0.326746
54	C	0.513691	0.487349	0.15481
55	C	0.551155	0.426901	0.057291
56	H	0.635596	0.444218	0.788767
57	H	0.516064	0.483513	0.668639
58	H	0.470694	0.514758	0.695297
59	H	0.482781	0.599812	0.92093
60	H	0.350229	0.542516	0.097524
61	H	0.527959	0.40999	0.16794
62	C	0.581225	0.163553	0
63	C	0.554926	0.162844	0.857653
64	S	0.519298	0.112342	0.792522
65	C	0.53933	0.091347	0.955471
66	C	0.520554	0.045633	0.971659
67	C	0.509897	0.018544	0.811998
68	C	0.491937	0.974397	0.826962
69	C	0.483202	0.953215	0.003374
70	C	0.464503	0.907745	0.016081
71	C	0.42369	0.876896	0.970819
72	C	0.41789	0.836013	0
73	C	0.453712	0.836146	0.064126
74	S	0.495087	0.886453	0.088836
75	C	0.492857	0.978416	0.170976
76	N	0.486497	0.965021	0.353274
77	S	0.503241	0.007169	0.490305
78	N	0.519215	0.044668	0.326746
79	C	0.512169	0.025874	0.15481
80	C	0.57263	0.122914	0.057291
81	H	0.554627	0.189174	0.788767
82	H	0.516006	0.032028	0.668639
83	H	0.484941	0.956168	0.695297
84	H	0.399405	0.883669	0.92093
85	H	0.457918	0.809555	0.097524
86	H	0.589785	0.116779	0.16794
87	C	0.834667	0.41768	0
88	C	0.835567	0.392393	0.857653
89	S	0.886559	0.407321	0.792522
90	C	0.907508	0.447963	0.955471
91	C	0.953569	0.474793	0.971659
92	C	0.98086	0.491156	0.811998
93	C	0.025341	0.517237	0.826962
94	C	0.046684	0.529634	0.003374
95	C	0.092499	0.556299	0.016081
96	C	0.123784	0.546591	0.970819
97	C	0.164899	0.58145	0
98	C	0.164509	0.616721	0.064126
99	S	0.113671	0.607664	0.088836
100	C	0.021297	0.514156	0.170976
101	N	0.0348	0.52117	0.353274
102	S	0.992336	0.495871	0.490305
103	N	0.954548	0.474428	0.326746
104	C	0.97348	0.486125	0.15481
105	C	0.875556	0.449533	0.057291
106	H	0.809117	0.365956	0.788767
107	H	0.96727	0.483807	0.668639
108	H	0.043706	0.528422	0.695297
109	H	0.117154	0.515867	0.92093
110	H	0.191193	0.647277	0.097524
111	H	0.881597	0.472578	0.16794
