data_C60H30N18O6_2023-05-30_14:01:57
#******************************************
#
# CIF file created by Zeo++
# Zeo++ is an open source package to
# analyze microporous materials
#
#*******************************************

_cell_length_a		37.7608   
_cell_length_b		38.0594   
_cell_length_c		7   
_cell_angle_alpha		90   
_cell_angle_beta		90   
_cell_angle_gamma		119.657   

_symmetry_space_group_name_H-M		'P1'
_symmetry_Int_Tables_number		1
_symmetry_cell_setting		Monoclinic

loop_
_symmetry_equiv_pos_as_xyz
'+x,+y,+z'

loop_
_atom_site_label
_atom_site_type_symbol
_atom_site_fract_x
_atom_site_fract_y
_atom_site_fract_z
1	C	0.374363	0.675222	0.999995
2	O	0.410338	0.681514	0.999991
3	C	0.341913	0.633179	0.999998
4	C	0.348288	0.60219	0
5	N	0.388557	0.609437	0
6	C	0.30031	0.625717	3e-06
7	O	0.271143	0.58948	5e-06
8	C	0.290251	0.65805	6e-06
9	C	0.251968	0.650248	5e-06
10	N	0.220392	0.609019	0
11	C	0.324267	0.699758	4e-06
12	O	0.316269	0.727718	7e-06
13	C	0.366537	0.709094	0.999999
14	C	0.396522	0.747143	0.999998
15	N	0.390418	0.780918	0
16	H	0.323442	0.572022	1e-06
17	H	0.243845	0.673407	8e-06
18	H	0.426912	0.752576	0.999997
19	C	0.625637	0.324778	0.999995
20	O	0.589662	0.318486	0.999991
21	C	0.658087	0.366821	0.999998
22	C	0.651712	0.39781	0
23	N	0.611443	0.390563	0
24	C	0.69969	0.374283	3e-06
25	O	0.728857	0.41052	5e-06
26	C	0.709749	0.34195	6e-06
27	C	0.748032	0.349752	5e-06
28	N	0.779608	0.390981	0
29	C	0.675733	0.300242	4e-06
30	O	0.683731	0.272282	7e-06
31	C	0.633463	0.290906	0.999999
32	C	0.603478	0.252857	0.999998
33	N	0.609582	0.219082	0
34	H	0.676558	0.427978	1e-06
35	H	0.756155	0.326593	8e-06
36	H	0.573088	0.247424	0.999997
37	C	0.413189	0.585248	0
38	C	0.423464	0.575158	0.827042
39	C	0.444965	0.554044	0.829104
40	C	0.456021	0.543188	0.001781
41	C	0.478771	0.520848	0.004715
42	C	0.490813	0.509022	0.169142
43	N	0.511764	0.488447	0.168209
44	C	0.521229	0.479153	0.995285
45	C	0.543979	0.456813	0.998219
46	C	0.555035	0.445955	0.170895
47	C	0.576536	0.424841	0.172957
48	C	0.586811	0.414752	0
49	N	0.577052	0.424335	0.83011
50	C	0.556151	0.44486	0.833724
51	C	0.509187	0.490979	0.830858
52	N	0.488235	0.511554	0.831791
53	C	0.44385	0.555141	0.166276
54	N	0.422949	0.575666	0.16989
55	H	0.415193	0.58328	0.692465
56	H	0.453109	0.546044	0.693064
57	H	0.484255	0.515462	0.311504
58	H	0.546889	0.453954	0.306935
59	H	0.584806	0.416719	0.307535
60	H	0.54952	0.451373	0.691272
61	H	0.515745	0.484538	0.688497
62	H	0.450482	0.548629	0.308728
63	C	0.414544	0.829295	0
64	C	0.424609	0.849475	0.827042
65	C	0.445669	0.891703	0.829104
66	C	0.456498	0.913417	0.001781
67	C	0.478781	0.958097	0.004715
68	C	0.490576	0.981748	0.169142
69	N	0.511099	0.022897	0.168209
70	C	0.520369	0.041485	0.995285
71	C	0.542652	0.086166	0.998219
72	C	0.553482	0.10788	0.170895
73	C	0.574542	0.150108	0.172957
74	C	0.584606	0.170288	0
75	N	0.575047	0.151121	0.83011
76	C	0.554574	0.110072	0.833724
77	C	0.508574	0.017834	0.830858
78	N	0.488051	0.976685	0.831791
79	C	0.444575	0.889511	0.166276
80	N	0.424103	0.848462	0.16989
81	H	0.416508	0.833231	0.692465
82	H	0.453649	0.9077	0.693064
83	H	0.484153	0.968867	0.311504
84	H	0.545504	0.091882	0.306935
85	H	0.582644	0.166352	0.307535
86	H	0.548078	0.097047	0.691272
87	H	0.514998	0.030715	0.688497
88	H	0.45107	0.902536	0.308728
89	C	0.171634	0.58483	0
90	C	0.151294	0.57474	0.827042
91	C	0.108733	0.553626	0.829104
92	C	0.086848	0.542769	0.001781
93	C	0.041815	0.520429	0.004715
94	C	0.017977	0.508603	0.169142
95	N	0.976503	0.488029	0.168209
96	C	0.957769	0.478735	0.995285
97	C	0.912736	0.456395	0.998219
98	C	0.89085	0.445538	0.170895
99	C	0.848289	0.424424	0.172957
100	C	0.82795	0.414334	0
101	N	0.847268	0.423917	0.83011
102	C	0.888641	0.444441	0.833724
103	C	0.981606	0.49056	0.830858
104	N	0.02308	0.511135	0.831791
105	C	0.110942	0.554721	0.166276
106	N	0.152315	0.575246	0.16989
107	H	0.167666	0.582863	0.692465
108	H	0.092609	0.545629	0.693064
109	H	0.03096	0.515044	0.311504
110	H	0.906974	0.453537	0.306935
111	H	0.831917	0.416303	0.307535
112	H	0.901769	0.450954	0.691272
113	H	0.968624	0.48412	0.688497
114	H	0.097814	0.548208	0.308728
