data_C54H24N12O6S6_2023-05-30_12:28:45
#******************************************
#
# CIF file created by Zeo++
# Zeo++ is an open source package to
# analyze microporous materials
#
#*******************************************

_cell_length_a		36.4146   
_cell_length_b		36.7132   
_cell_length_c		7   
_cell_angle_alpha		90   
_cell_angle_beta		90   
_cell_angle_gamma		119.645   

_symmetry_space_group_name_H-M		'P1'
_symmetry_Int_Tables_number		1
_symmetry_cell_setting		Monoclinic

loop_
_symmetry_equiv_pos_as_xyz
'+x,+y,+z'

loop_
_atom_site_label
_atom_site_type_symbol
_atom_site_fract_x
_atom_site_fract_y
_atom_site_fract_z
1	C	0.375878	0.675535	0.999995
2	O	0.413181	0.682056	0.999991
3	C	0.342239	0.631956	0.999998
4	C	0.348858	0.599834	0
5	N	0.390614	0.607346	0
6	C	0.2991	0.624221	3e-06
7	O	0.268864	0.58666	5e-06
8	C	0.28866	0.657736	6e-06
9	C	0.248964	0.649648	5e-06
10	N	0.216232	0.606912	0
11	C	0.323923	0.700967	4e-06
12	O	0.315622	0.729949	7e-06
13	C	0.367753	0.710644	0.999999
14	C	0.398836	0.750083	0.999998
15	N	0.392498	0.785092	0
16	H	0.323102	0.568564	1e-06
17	H	0.240535	0.673654	8e-06
18	H	0.430349	0.755715	0.999997
19	C	0.624122	0.324465	0.999995
20	O	0.586819	0.317944	0.999991
21	C	0.657761	0.368044	0.999998
22	C	0.651142	0.400166	0
23	N	0.609386	0.392654	0
24	C	0.7009	0.375779	3e-06
25	O	0.731136	0.41334	5e-06
26	C	0.71134	0.342264	6e-06
27	C	0.751036	0.350352	5e-06
28	N	0.783768	0.393088	0
29	C	0.676077	0.299033	4e-06
30	O	0.684378	0.270051	7e-06
31	C	0.632247	0.289356	0.999999
32	C	0.601164	0.249917	0.999998
33	N	0.607502	0.214908	0
34	H	0.676898	0.431436	1e-06
35	H	0.759465	0.326346	8e-06
36	H	0.569651	0.244285	0.999997
37	C	0.583837	0.417727	0
38	C	0.579223	0.422255	0.191148
39	C	0.556681	0.444376	0.222644
40	C	0.544904	0.455934	0.054409
41	C	0.521588	0.478816	0.026928
42	C	0.507213	0.492923	0.178417
43	N	0.485656	0.514077	0.155493
44	C	0.478413	0.521185	0.973072
45	C	0.455097	0.544066	0.945591
46	C	0.443319	0.555624	0.777356
47	C	0.420778	0.577745	0.808852
48	C	0.416163	0.582273	0
49	S	0.438115	0.560732	0.140151
50	C	0.492788	0.507078	0.821583
51	N	0.514344	0.485924	0.844507
52	S	0.561886	0.439269	0.859849
53	H	0.591137	0.410563	0.303305
54	H	0.54967	0.451256	0.364102
55	H	0.512399	0.487834	0.326133
56	H	0.450329	0.548744	0.635898
57	H	0.408863	0.589437	0.696695
58	H	0.487601	0.512166	0.673867
59	C	0.581615	0.164331	0
60	C	0.577099	0.155273	0.191148
61	C	0.555036	0.111031	0.222644
62	C	0.543508	0.087915	0.054409
63	C	0.520687	0.042153	0.026928
64	C	0.506618	0.01394	0.178417
65	N	0.48552	0.971631	0.155493
66	C	0.478431	0.957415	0.973072
67	C	0.45561	0.911652	0.945591
68	C	0.444083	0.888536	0.777356
69	C	0.42202	0.844294	0.808852
70	C	0.417504	0.835237	0
71	S	0.438989	0.878322	0.140151
72	C	0.4925	0.985628	0.821583
73	N	0.513599	0.027937	0.844507
74	S	0.56013	0.121246	0.859849
75	H	0.58876	0.178657	0.303305
76	H	0.548174	0.097271	0.364102
77	H	0.511693	0.024117	0.326133
78	H	0.450945	0.902296	0.635898
79	H	0.410359	0.82091	0.696695
80	H	0.487426	0.97545	0.673867
81	C	0.833891	0.417293	0
82	C	0.843022	0.421822	0.191148
83	C	0.887627	0.443943	0.222644
84	C	0.910931	0.4555	0.054409
85	C	0.957069	0.478382	0.026928
86	C	0.985512	0.492488	0.178417
87	N	0.028167	0.513643	0.155493
88	C	0.0425	0.520751	0.973072
89	C	0.088637	0.543632	0.945591
90	C	0.111942	0.55519	0.777356
91	C	0.156546	0.577311	0.808852
92	C	0.165677	0.58184	0
93	S	0.12224	0.560297	0.140151
94	C	0.014056	0.506644	0.821583
95	N	0.971401	0.48549	0.844507
96	S	0.877328	0.438835	0.859849
97	H	0.819447	0.41013	0.303305
98	H	0.901499	0.450823	0.364102
99	H	0.975252	0.487399	0.326133
100	H	0.098069	0.548311	0.635898
101	H	0.180121	0.589003	0.696695
102	H	0.024316	0.511734	0.673867
