data_C60H24N12O6S9_2023-05-13_08:06:05
#******************************************
#
# CIF file created by Zeo++
# Zeo++ is an open source package to
# analyze microporous materials
#
#*******************************************

_cell_length_a		37.019   
_cell_length_b		37.3176   
_cell_length_c		7   
_cell_angle_alpha		90   
_cell_angle_beta		90   
_cell_angle_gamma		119.651   

_symmetry_space_group_name_H-M		'P1'
_symmetry_Int_Tables_number		1
_symmetry_cell_setting		Monoclinic

loop_
_symmetry_equiv_pos_as_xyz
'+x,+y,+z'

loop_
_atom_site_label
_atom_site_type_symbol
_atom_site_fract_x
_atom_site_fract_y
_atom_site_fract_z
1	C	0.375184	0.675392	0.999995
2	O	0.411879	0.681808	0.999991
3	C	0.342089	0.632516	0.999998
4	C	0.348597	0.600913	0
5	N	0.389672	0.608303	0
6	C	0.299654	0.624906	3e-06
7	O	0.269907	0.587951	5e-06
8	C	0.289389	0.65788	6e-06
9	C	0.25034	0.649923	5e-06
10	N	0.218137	0.607877	0
11	C	0.324081	0.700413	4e-06
12	O	0.315919	0.728928	7e-06
13	C	0.367196	0.709934	0.999999
14	C	0.397776	0.748737	0.999998
15	N	0.391545	0.783181	0
16	H	0.323257	0.570147	1e-06
17	H	0.242051	0.673541	8e-06
18	H	0.428775	0.754277	0.999997
19	C	0.624816	0.324608	0.999995
20	O	0.588121	0.318192	0.999991
21	C	0.657911	0.367484	0.999998
22	C	0.651403	0.399087	0
23	N	0.610328	0.391697	0
24	C	0.700346	0.375094	3e-06
25	O	0.730093	0.412049	5e-06
26	C	0.710611	0.34212	6e-06
27	C	0.74966	0.350077	5e-06
28	N	0.781863	0.392123	0
29	C	0.675919	0.299587	4e-06
30	O	0.684081	0.271072	7e-06
31	C	0.632804	0.290066	0.999999
32	C	0.602224	0.251263	0.999998
33	N	0.608455	0.216819	0
34	H	0.676743	0.429853	1e-06
35	H	0.757949	0.326459	8e-06
36	H	0.571225	0.245723	0.999997
37	C	0.4148	0.583636	0
38	C	0.418272	0.580238	0.192651
39	C	0.440251	0.558665	0.233976
40	C	0.452959	0.54618	0.072446
41	C	0.476133	0.523429	0.053406
42	C	0.48678	0.512977	0.876291
43	C	0.508915	0.491247	0.855354
44	C	0.523423	0.477004	0.00835
45	C	0.546375	0.454471	0.97261
46	C	0.556733	0.444284	0.797241
47	C	0.579101	0.422329	0.812772
48	C	0.5852	0.416364	0
49	S	0.564812	0.436397	0.153462
50	C	0.513808	0.486442	0.193278
51	N	0.523485	0.476941	0.36408
52	S	0.505443	0.494657	0.532107
53	N	0.483976	0.515731	0.400892
54	C	0.489762	0.51005	0.215929
55	S	0.43714	0.561698	0.87064
56	H	0.406006	0.592285	0.299778
57	H	0.446137	0.552895	0.379062
58	H	0.477816	0.521778	0.743498
59	H	0.514689	0.485579	0.708731
60	H	0.548808	0.452045	0.660388
61	H	0.589819	0.411794	0.692718
62	C	0.416149	0.832516	0
63	C	0.419538	0.839322	0.192651
64	C	0.441054	0.88247	0.233976
65	C	0.453506	0.907429	0.072446
66	C	0.476199	0.952929	0.053406
67	C	0.486623	0.973832	0.876291
68	C	0.508297	0.017291	0.855354
69	C	0.522503	0.045777	0.00835
70	C	0.544977	0.09084	0.97261
71	C	0.555138	0.111195	0.797241
72	C	0.577036	0.155107	0.812772
73	C	0.582985	0.167059	0
74	S	0.563004	0.127013	0.153462
75	C	0.513089	0.0269	0.193278
76	N	0.522566	0.0459	0.36408
77	S	0.504896	0.010473	0.532107
78	N	0.483876	0.968326	0.400892
79	C	0.489543	0.979687	0.215929
80	S	0.43803	0.876383	0.87064
81	H	0.407522	0.815234	0.299778
82	H	0.44681	0.894018	0.379062
83	H	0.477845	0.956232	0.743498
84	H	0.51395	0.028628	0.708731
85	H	0.547397	0.095654	0.660388
86	H	0.587544	0.176163	0.692718
87	C	0.168405	0.583209	0
88	C	0.161544	0.579801	0.192651
89	C	0.118049	0.558226	0.233976
90	C	0.092889	0.545751	0.072446
91	C	0.047022	0.523002	0.053406
92	C	0.025952	0.512551	0.876291
93	C	0.982143	0.490823	0.855354
94	C	0.953428	0.476581	0.00835
95	C	0.908002	0.45405	0.97261
96	C	0.887483	0.443883	0.797241
97	C	0.843218	0.421925	0.812772
98	C	0.83117	0.415938	0
99	S	0.871538	0.435951	0.153462
100	C	0.972457	0.486019	0.193278
101	N	0.953304	0.47652	0.36408
102	S	0.989016	0.494231	0.532107
103	N	0.031502	0.515304	0.400892
104	C	0.020049	0.509624	0.215929
105	S	0.124185	0.56128	0.87064
106	H	0.185826	0.591842	0.299778
107	H	0.106408	0.552448	0.379062
108	H	0.043693	0.52135	0.743498
109	H	0.970715	0.485154	0.708731
110	H	0.903149	0.451662	0.660388
111	H	0.821992	0.411404	0.692718
