data_C54H24N18O6S3_2023-05-30_16:20:01
#******************************************
#
# CIF file created by Zeo++
# Zeo++ is an open source package to
# analyze microporous materials
#
#*******************************************

_cell_length_a		35.7769   
_cell_length_b		36.0755   
_cell_length_c		7   
_cell_angle_alpha		90   
_cell_angle_beta		90   
_cell_angle_gamma		119.638   

_symmetry_space_group_name_H-M		'P1'
_symmetry_Int_Tables_number		1
_symmetry_cell_setting		Monoclinic

loop_
_symmetry_equiv_pos_as_xyz
'+x,+y,+z'

loop_
_atom_site_label
_atom_site_type_symbol
_atom_site_fract_x
_atom_site_fract_y
_atom_site_fract_z
1	C	0.376635	0.675691	0.999995
2	O	0.414602	0.682327	0.999991
3	C	0.342402	0.631345	0.999998
4	C	0.349143	0.598657	0
5	N	0.391642	0.606301	0
6	C	0.298495	0.623473	3e-06
7	O	0.267725	0.585251	5e-06
8	C	0.287865	0.657578	6e-06
9	C	0.247462	0.649348	5e-06
10	N	0.214153	0.60586	0
11	C	0.323751	0.701571	4e-06
12	O	0.315298	0.731064	7e-06
13	C	0.368361	0.711419	0.999999
14	C	0.399993	0.751552	0.999998
15	N	0.393537	0.787178	0
16	H	0.322932	0.566836	1e-06
17	H	0.23888	0.673777	8e-06
18	H	0.432067	0.757283	0.999997
19	C	0.623365	0.324309	0.999995
20	O	0.585398	0.317673	0.999991
21	C	0.657598	0.368655	0.999998
22	C	0.650857	0.401343	0
23	N	0.608358	0.393699	0
24	C	0.701505	0.376527	3e-06
25	O	0.732275	0.414749	5e-06
26	C	0.712135	0.342422	6e-06
27	C	0.752538	0.350652	5e-06
28	N	0.785847	0.39414	0
29	C	0.676249	0.298429	4e-06
30	O	0.684702	0.268936	7e-06
31	C	0.631639	0.288581	0.999999
32	C	0.600007	0.248448	0.999998
33	N	0.606463	0.212822	0
34	H	0.677068	0.433164	1e-06
35	H	0.76112	0.326223	8e-06
36	H	0.567933	0.242717	0.999997
37	C	0.58235	0.419213	0
38	C	0.564042	0.437176	0.884593
39	N	0.543512	0.457319	0.955846
40	C	0.541723	0.45907	0.149221
41	C	0.519496	0.480874	0.223934
42	C	0.514361	0.485914	0.415924
43	S	0.486962	0.512791	0.457035
44	C	0.480918	0.51872	0.217869
45	C	0.458386	0.540825	0.147441
46	N	0.456471	0.542706	0.953981
47	C	0.435891	0.562893	0.883757
48	C	0.41765	0.580787	0
49	N	0.419273	0.579192	0.192382
50	C	0.439893	0.558963	0.262584
51	C	0.499927	0.50007	0.111587
52	C	0.560263	0.440878	0.263568
53	N	0.580835	0.420696	0.192509
54	H	0.565195	0.436049	0.730002
55	H	0.525061	0.475414	0.538371
56	H	0.434642	0.56412	0.729226
57	H	0.440791	0.558082	0.41729
58	H	0.499874	0.500125	0.956472
59	H	0.559481	0.441642	0.418205
60	C	0.580121	0.161354	0
61	C	0.562206	0.125431	0.884593
62	N	0.542117	0.085147	0.955846
63	C	0.540371	0.081641	0.149221
64	C	0.518626	0.038031	0.223934
65	C	0.5136	0.027954	0.415924
66	S	0.486795	0.974198	0.457035
67	C	0.480882	0.96234	0.217869
68	C	0.458837	0.918131	0.147441
69	N	0.456961	0.914371	0.953981
70	C	0.436828	0.873995	0.883757
71	C	0.418982	0.838206	0
72	N	0.420573	0.841393	0.192382
73	C	0.440747	0.881851	0.262584
74	C	0.499481	0.999638	0.111587
75	C	0.558515	0.118021	0.263568
76	N	0.578642	0.158385	0.192509
77	H	0.563331	0.127689	0.730002
78	H	0.524071	0.048951	0.538371
79	H	0.435605	0.871543	0.729226
80	H	0.441626	0.883613	0.41729
81	H	0.499427	0.999532	0.956472
82	H	0.557752	0.116489	0.418205
83	C	0.836861	0.418772	0
84	C	0.873083	0.436732	0.884593
85	N	0.913703	0.456873	0.955846
86	C	0.917238	0.458628	0.149221
87	C	0.96121	0.480433	0.223934
88	C	0.971372	0.485471	0.415924
89	S	0.025575	0.51235	0.457035
90	C	0.037532	0.518279	0.217869
91	C	0.082109	0.540383	0.147441
92	N	0.0859	0.542262	0.953981
93	C	0.126613	0.562451	0.883757
94	C	0.1627	0.580346	0
95	N	0.159486	0.578754	0.192382
96	C	0.118691	0.558525	0.262584
97	C	0.999923	0.49963	0.111587
98	C	0.880555	0.44044	0.263568
99	N	0.839855	0.420258	0.192509
100	H	0.870806	0.435601	0.730002
101	H	0.9502	0.474973	0.538371
102	H	0.129085	0.563676	0.729226
103	H	0.116915	0.557644	0.41729
104	H	3.1e-05	0.499683	0.956472
105	H	0.882099	0.441208	0.418205
