data_C66H36N12O6_2023-05-10_21:34:27
#******************************************
#
# CIF file created by Zeo++
# Zeo++ is an open source package to
# analyze microporous materials
#
#*******************************************

_cell_length_a		37.9769   
_cell_length_b		38.2754   
_cell_length_c		7   
_cell_angle_alpha		90   
_cell_angle_beta		90   
_cell_angle_gamma		119.659   

_symmetry_space_group_name_H-M		'P1'
_symmetry_Int_Tables_number		1
_symmetry_cell_setting		Monoclinic

loop_
_symmetry_equiv_pos_as_xyz
'+x,+y,+z'

loop_
_atom_site_label
_atom_site_type_symbol
_atom_site_fract_x
_atom_site_fract_y
_atom_site_fract_z
1	C	0.37413	0.675174	0.999995
2	O	0.4099	0.68143	0.999991
3	C	0.341863	0.633368	0.999998
4	C	0.348201	0.602553	0
5	N	0.388241	0.609759	0
6	C	0.300496	0.625947	3e-06
7	O	0.271493	0.589914	5e-06
8	C	0.290495	0.658099	6e-06
9	C	0.25243	0.65034	5e-06
10	N	0.221032	0.609343	0
11	C	0.32432	0.699571	4e-06
12	O	0.316369	0.727375	7e-06
13	C	0.36635	0.708855	0.999999
14	C	0.396165	0.74669	0.999998
15	N	0.390097	0.780275	0
16	H	0.323495	0.572554	1e-06
17	H	0.244355	0.673369	8e-06
18	H	0.426383	0.752092	0.999997
19	C	0.62587	0.324826	0.999995
20	O	0.5901	0.31857	0.999991
21	C	0.658137	0.366632	0.999998
22	C	0.651799	0.397447	0
23	N	0.611759	0.390241	0
24	C	0.699504	0.374053	3e-06
25	O	0.728507	0.410086	5e-06
26	C	0.709505	0.341901	6e-06
27	C	0.74757	0.34966	5e-06
28	N	0.778968	0.390657	0
29	C	0.67568	0.300429	4e-06
30	O	0.683631	0.272625	7e-06
31	C	0.63365	0.291145	0.999999
32	C	0.603835	0.25331	0.999998
33	N	0.609903	0.219725	0
34	H	0.676505	0.427446	1e-06
35	H	0.755645	0.326631	8e-06
36	H	0.573617	0.247908	0.999997
37	C	0.587268	0.414294	0
38	C	0.576988	0.424383	0.826135
39	C	0.555528	0.445459	0.822308
40	C	0.543837	0.456946	0.991514
41	C	0.521111	0.479265	0.992454
42	C	0.508852	0.491298	0.829838
43	N	0.488016	0.511761	0.833344
44	C	0.478887	0.520733	0.00755
45	C	0.456162	0.543053	0.00849
46	C	0.444469	0.554538	0.177695
47	C	0.423008	0.575614	0.173867
48	C	0.412732	0.585706	0
49	C	0.423697	0.574935	0.830109
50	C	0.445121	0.553895	0.835091
51	C	0.491146	0.5087	0.170166
52	N	0.511982	0.488237	0.166659
53	C	0.55488	0.446106	0.164911
54	C	0.576304	0.425065	0.169891
55	H	0.585449	0.416071	0.692395
56	H	0.548312	0.452542	0.682442
57	H	0.515167	0.48509	0.686784
58	H	0.451683	0.547452	0.317561
59	H	0.414547	0.583925	0.307607
60	H	0.415885	0.582606	0.693043
61	H	0.453306	0.545855	0.699393
62	H	0.484832	0.514907	0.313223
63	H	0.546696	0.454147	0.30061
64	H	0.584118	0.417396	0.306955
65	C	0.585067	0.171205	0
66	C	0.575003	0.151019	0.826135
67	C	0.55398	0.108867	0.822308
68	C	0.542522	0.085899	0.991514
69	C	0.52026	0.04126	0.992454
70	C	0.508258	0.017188	0.829838
71	N	0.487846	0.976262	0.833344
72	C	0.478897	0.958325	0.00755
73	C	0.456634	0.913686	0.00849
74	C	0.445179	0.890718	0.177695
75	C	0.424156	0.848565	0.173867
76	C	0.414089	0.82838	0
77	C	0.424832	0.84992	0.830109
78	C	0.44582	0.892001	0.835091
79	C	0.4909	0.982397	0.170166
80	N	0.511311	0.023323	0.166659
81	C	0.553335	0.107584	0.164911
82	C	0.574322	0.149666	0.169891
83	H	0.583294	0.167641	0.692395
84	H	0.546915	0.094697	0.682442
85	H	0.51445	0.029598	0.686784
86	H	0.452246	0.904888	0.317561
87	H	0.415865	0.831943	0.307607
88	H	0.417181	0.834577	0.693043
89	H	0.453839	0.908079	0.699393
90	H	0.484708	0.969989	0.313223
91	H	0.545314	0.091506	0.30061
92	H	0.581972	0.165009	0.306955
93	C	0.827035	0.413878	0
94	C	0.84738	0.423974	0.826135
95	C	0.889862	0.44505	0.822308
96	C	0.913011	0.456532	0.991514
97	C	0.958	0.478852	0.992454
98	C	0.982261	0.490891	0.829838
99	N	0.023508	0.511354	0.833344
100	C	0.041586	0.520319	0.00755
101	C	0.086575	0.542638	0.00849
102	C	0.109723	0.554122	0.177695
103	C	0.152206	0.575198	0.173867
104	C	0.17255	0.585291	0
105	C	0.150841	0.574522	0.830109
106	C	0.10843	0.553481	0.835091
107	C	0.017324	0.508279	0.170166
108	N	0.976078	0.487817	0.166659
109	C	0.891156	0.445687	0.164911
110	C	0.848744	0.424646	0.169891
111	H	0.830628	0.415665	0.692395
112	H	0.904144	0.452138	0.682442
113	H	0.969753	0.484688	0.686784
114	H	0.095442	0.547037	0.317561
115	H	0.168959	0.583508	0.307607
116	H	0.166304	0.582194	0.693043
117	H	0.092225	0.545443	0.699393
118	H	0.029831	0.514481	0.313223
119	H	0.90736	0.453724	0.30061
120	H	0.833281	0.416972	0.306955
