data_C57H27N9O6S6_2023-05-12_11:57:33
#******************************************
#
# CIF file created by Zeo++
# Zeo++ is an open source package to
# analyze microporous materials
#
#*******************************************

_cell_length_a		36.0789   
_cell_length_b		36.3775   
_cell_length_c		7   
_cell_angle_alpha		90   
_cell_angle_beta		90   
_cell_angle_gamma		119.641   

_symmetry_space_group_name_H-M		'P1'
_symmetry_Int_Tables_number		1
_symmetry_cell_setting		Monoclinic

loop_
_symmetry_equiv_pos_as_xyz
'+x,+y,+z'

loop_
_atom_site_label
_atom_site_type_symbol
_atom_site_fract_x
_atom_site_fract_y
_atom_site_fract_z
1	C	0.376273	0.675617	0.999995
2	O	0.413923	0.682198	0.999991
3	C	0.342324	0.631637	0.999998
4	C	0.349007	0.59922	0
5	N	0.391151	0.6068	0
6	C	0.298784	0.62383	3e-06
7	O	0.268269	0.585924	5e-06
8	C	0.288245	0.657654	6e-06
9	C	0.24818	0.649491	5e-06
10	N	0.215146	0.606363	0
11	C	0.323834	0.701282	4e-06
12	O	0.315453	0.730531	7e-06
13	C	0.36807	0.711049	0.999999
14	C	0.39944	0.75085	0.999998
15	N	0.39304	0.786181	0
16	H	0.323013	0.567662	1e-06
17	H	0.239671	0.673718	8e-06
18	H	0.431246	0.756533	0.999997
19	C	0.623727	0.324383	0.999995
20	O	0.586077	0.317802	0.999991
21	C	0.657676	0.368363	0.999998
22	C	0.650993	0.40078	0
23	N	0.608849	0.3932	0
24	C	0.701216	0.37617	3e-06
25	O	0.731731	0.414076	5e-06
26	C	0.711755	0.342346	6e-06
27	C	0.75182	0.350509	5e-06
28	N	0.784854	0.393637	0
29	C	0.676166	0.298718	4e-06
30	O	0.684547	0.269469	7e-06
31	C	0.63193	0.288951	0.999999
32	C	0.60056	0.24915	0.999998
33	N	0.60696	0.213819	0
34	H	0.676987	0.432338	1e-06
35	H	0.760329	0.326282	8e-06
36	H	0.568754	0.243467	0.999997
37	C	0.583061	0.418503	0
38	C	0.584	0.417586	0.195276
39	S	0.558781	0.442333	0.292427
40	C	0.546273	0.4546	0.071716
41	C	0.522486	0.477939	0.054846
42	C	0.50852	0.491641	0.211778
43	C	0.486136	0.513604	0.185998
44	C	0.477747	0.521835	0.001912
45	C	0.454333	0.544807	0.964239
46	C	0.437261	0.56156	0.092526
47	C	0.416939	0.581497	0
48	C	0.418414	0.580047	0.804907
49	S	0.444696	0.554259	0.732436
50	N	0.490772	0.509055	0.847208
51	C	0.512411	0.487824	0.876829
52	C	0.561709	0.43945	0.927903
53	H	0.598109	0.403745	0.285958
54	H	0.514566	0.485708	0.357482
55	H	0.475778	0.523766	0.310714
56	H	0.439252	0.559608	0.24613
57	H	0.405534	0.592684	0.700898
58	H	0.521578	0.478831	0.744628
59	H	0.557927	0.443157	0.776895
60	C	0.580835	0.162777	0
61	C	0.581749	0.164615	0.195276
62	S	0.557068	0.115123	0.292427
63	C	0.544834	0.090584	0.071716
64	C	0.521557	0.043905	0.054846
65	C	0.507892	0.016501	0.211778
66	C	0.485988	0.972575	0.185998
67	C	0.477779	0.956113	0.001912
68	C	0.454868	0.910167	0.964239
69	C	0.43816	0.876664	0.092526
70	C	0.418276	0.836787	0
71	C	0.419722	0.839685	0.804907
72	S	0.445442	0.89126	0.732436
73	N	0.490525	0.981673	0.847208
74	C	0.511699	0.024136	0.876829
75	C	0.559944	0.12088	0.927903
76	H	0.595553	0.192299	0.285958
77	H	0.513809	0.028365	0.357482
78	H	0.475853	0.95225	0.310714
79	H	0.440107	0.88057	0.24613
80	H	0.407119	0.81441	0.700898
81	H	0.520668	0.042122	0.744628
82	H	0.556247	0.113461	0.776895
83	C	0.835441	0.418065	0
84	C	0.833588	0.417144	0.195276
85	S	0.883488	0.441888	0.292427
86	C	0.90823	0.454161	0.071716
87	C	0.955295	0.4775	0.054846
88	C	0.982925	0.491203	0.211778
89	C	0.027213	0.513166	0.185998
90	C	0.043812	0.521397	0.001912
91	C	0.090137	0.54437	0.964239
92	C	0.123917	0.561121	0.092526
93	C	0.164123	0.58106	0
94	C	0.161201	0.579613	0.804907
95	S	0.1092	0.553825	0.732436
96	N	0.01804	0.508617	0.847208
97	C	0.975227	0.487385	0.876829
98	C	0.877684	0.439015	0.927903
99	H	0.805675	0.4033	0.285958
100	H	0.970963	0.485271	0.357482
101	H	0.047706	0.523328	0.310714
102	H	0.119979	0.559167	0.24613
103	H	0.186684	0.592251	0.700898
104	H	0.957092	0.478391	0.744628
105	H	0.885164	0.442726	0.776895
