data_C60H24N18O6S6_2023-05-30_09:36:32
#******************************************
#
# CIF file created by Zeo++
# Zeo++ is an open source package to
# analyze microporous materials
#
#*******************************************

_cell_length_a		40.7142   
_cell_length_b		41.0128   
_cell_length_c		7   
_cell_angle_alpha		90   
_cell_angle_beta		90   
_cell_angle_gamma		119.682   

_symmetry_space_group_name_H-M		'P1'
_symmetry_Int_Tables_number		1
_symmetry_cell_setting		Monoclinic

loop_
_symmetry_equiv_pos_as_xyz
'+x,+y,+z'

loop_
_atom_site_label
_atom_site_type_symbol
_atom_site_fract_x
_atom_site_fract_y
_atom_site_fract_z
1	C	0.371391	0.674608	0.999995
2	O	0.404759	0.680448	0.999991
3	C	0.341275	0.635583	0.999998
4	C	0.347173	0.606818	0
5	N	0.384525	0.613545	0
6	C	0.302686	0.628656	3e-06
7	O	0.275618	0.595021	5e-06
8	C	0.293372	0.658669	6e-06
9	C	0.257862	0.651426	5e-06
10	N	0.228558	0.613157	0
11	C	0.32494	0.697382	4e-06
12	O	0.317535	0.723336	7e-06
13	C	0.364148	0.706048	0.999999
14	C	0.391975	0.741366	0.999998
15	N	0.38633	0.772716	0
16	H	0.324116	0.578816	1e-06
17	H	0.25034	0.672924	8e-06
18	H	0.420164	0.746409	0.999997
19	C	0.628609	0.325392	0.999995
20	O	0.595241	0.319552	0.999991
21	C	0.658725	0.364417	0.999998
22	C	0.652827	0.393182	0
23	N	0.615475	0.386455	0
24	C	0.697314	0.371344	3e-06
25	O	0.724382	0.404979	5e-06
26	C	0.706628	0.341331	6e-06
27	C	0.742138	0.348574	5e-06
28	N	0.771442	0.386843	0
29	C	0.67506	0.302618	4e-06
30	O	0.682465	0.276664	7e-06
31	C	0.635852	0.293952	0.999999
32	C	0.608025	0.258634	0.999998
33	N	0.61367	0.227284	0
34	H	0.675884	0.421184	1e-06
35	H	0.74966	0.327076	8e-06
36	H	0.579836	0.253591	0.999997
37	C	0.407359	0.591093	0
38	C	0.418176	0.580456	0.834262
39	N	0.437556	0.561399	0.835526
40	C	0.446045	0.553051	0.009786
41	C	0.467122	0.532326	0.013602
42	C	0.479181	0.52047	0.170557
43	C	0.498801	0.501179	0.115597
44	C	0.50135	0.498672	0.922994
45	C	0.520956	0.479392	0.86875
46	C	0.532982	0.467566	0.025913
47	C	0.554029	0.446872	0.023896
48	N	0.561865	0.439166	0.846223
49	C	0.581236	0.420121	0.838208
50	C	0.592641	0.408907	0
51	N	0.585076	0.416346	0.177414
52	C	0.56568	0.435419	0.185372
53	S	0.52044	0.479903	0.23772
54	S	0.479737	0.519921	0.801219
55	C	0.434961	0.56395	0.175201
56	N	0.415559	0.583029	0.174617
57	H	0.411662	0.586861	0.693733
58	H	0.474583	0.524995	0.318173
59	H	0.525937	0.474494	0.722143
60	H	0.587268	0.41419	0.695528
61	H	0.559957	0.441045	0.329299
62	H	0.441252	0.557763	0.31668
63	C	0.408729	0.817621	0
64	C	0.419341	0.838894	0.834262
65	N	0.438352	0.877007	0.835526
66	C	0.446681	0.893702	0.009786
67	C	0.467357	0.935152	0.013602
68	C	0.479184	0.958865	0.170557
69	C	0.49843	0.997448	0.115597
70	C	0.500931	0.002462	0.922994
71	C	0.520166	0.041021	0.86875
72	C	0.531964	0.064671	0.025913
73	C	0.552608	0.10606	0.023896
74	N	0.560297	0.121472	0.846223
75	C	0.579296	0.159563	0.838208
76	C	0.590484	0.181992	0
77	N	0.583063	0.167115	0.177414
78	C	0.564034	0.128969	0.185372
79	S	0.519656	0.040002	0.23772
80	S	0.479733	0.959962	0.801219
81	C	0.435808	0.871904	0.175201
82	N	0.416773	0.833747	0.174617
83	H	0.41295	0.826084	0.693733
84	H	0.474671	0.949819	0.318173
85	H	0.525052	0.050816	0.722143
86	H	0.585214	0.171426	0.695528
87	H	0.558422	0.117716	0.329299
88	H	0.44198	0.884277	0.31668
89	C	0.183325	0.590705	0
90	C	0.161896	0.580068	0.834262
91	N	0.123505	0.561012	0.835526
92	C	0.106687	0.552665	0.009786
93	C	0.064934	0.53194	0.013602
94	C	0.041048	0.520083	0.170557
95	C	0.002182	0.500791	0.115597
96	C	0.997131	0.498284	0.922994
97	C	0.958291	0.479006	0.86875
98	C	0.934467	0.467181	0.025913
99	C	0.892775	0.446486	0.023896
100	N	0.877251	0.438781	0.846223
101	C	0.83888	0.419734	0.838208
102	C	0.816288	0.408519	0
103	N	0.831274	0.415958	0.177414
104	C	0.869699	0.43503	0.185372
105	S	0.959316	0.479513	0.23772
106	S	0.039943	0.519536	0.801219
107	C	0.128644	0.563564	0.175201
108	N	0.167081	0.582642	0.174617
109	H	0.174801	0.586473	0.693733
110	H	0.050159	0.524604	0.318173
111	H	0.948424	0.474109	0.722143
112	H	0.826931	0.413803	0.695528
113	H	0.881034	0.440657	0.329299
114	H	0.116181	0.557378	0.31668
