data_C66H30N18O6S6_2023-05-30_17:51:47
#******************************************
#
# CIF file created by Zeo++
# Zeo++ is an open source package to
# analyze microporous materials
#
#*******************************************

_cell_length_a		39.4094   
_cell_length_b		39.708   
_cell_length_c		7   
_cell_angle_alpha		90   
_cell_angle_beta		90   
_cell_angle_gamma		119.672   

_symmetry_space_group_name_H-M		'P1'
_symmetry_Int_Tables_number		1
_symmetry_cell_setting		Monoclinic

loop_
_symmetry_equiv_pos_as_xyz
'+x,+y,+z'

loop_
_atom_site_label
_atom_site_type_symbol
_atom_site_fract_x
_atom_site_fract_y
_atom_site_fract_z
1	C	0.372649	0.674868	0.999995
2	O	0.407121	0.680899	0.999991
3	C	0.341545	0.634565	0.999998
4	C	0.347645	0.604858	0
5	N	0.386231	0.611805	0
6	C	0.30168	0.627412	3e-06
7	O	0.273723	0.592674	5e-06
8	C	0.292051	0.658407	6e-06
9	C	0.255367	0.650927	5e-06
10	N	0.225101	0.611404	0
11	C	0.324656	0.698388	4e-06
12	O	0.317	0.725192	7e-06
13	C	0.36516	0.707338	0.999999
14	C	0.393901	0.743812	0.999998
15	N	0.388061	0.77619	0
16	H	0.32383	0.575938	1e-06
17	H	0.247591	0.673128	8e-06
18	H	0.423021	0.749021	0.999997
19	C	0.627351	0.325132	0.999995
20	O	0.592879	0.319101	0.999991
21	C	0.658455	0.365435	0.999998
22	C	0.652355	0.395142	0
23	N	0.613769	0.388195	0
24	C	0.69832	0.372588	3e-06
25	O	0.726277	0.407326	5e-06
26	C	0.707949	0.341593	6e-06
27	C	0.744633	0.349073	5e-06
28	N	0.774899	0.388596	0
29	C	0.675344	0.301612	4e-06
30	O	0.683	0.274808	7e-06
31	C	0.63484	0.292662	0.999999
32	C	0.606099	0.256188	0.999998
33	N	0.611939	0.22381	0
34	H	0.67617	0.424062	1e-06
35	H	0.752409	0.326872	8e-06
36	H	0.576979	0.250979	0.999997
37	C	0.590174	0.411382	0
38	C	0.593027	0.408578	0.196142
39	N	0.577876	0.423467	0.323085
40	C	0.559447	0.441579	0.247033
41	C	0.542891	0.457848	0.381288
42	C	0.545932	0.454858	0.576421
43	S	0.524535	0.475885	0.70421
44	C	0.51022	0.489954	0.50188
45	C	0.488806	0.511	0.505963
46	C	0.476271	0.523319	0.349723
47	C	0.45563	0.543604	0.397804
48	C	0.439269	0.559683	0.261435
49	N	0.444541	0.554501	0.074129
50	C	0.429496	0.569288	0.945982
51	C	0.409826	0.588618	0
52	N	0.404382	0.593966	0.185596
53	C	0.419444	0.579166	0.313826
54	C	0.453321	0.545873	0.593645
55	S	0.475284	0.524289	0.713372
56	C	0.522106	0.478275	0.340541
57	C	0.556785	0.444196	0.049674
58	N	0.571933	0.429309	0.922451
59	H	0.607655	0.394203	0.258765
60	H	0.559879	0.44115	0.651682
61	H	0.481416	0.518261	0.203143
62	H	0.433904	0.564956	0.797054
63	H	0.4147	0.583827	0.461656
64	H	0.439933	0.559032	0.677386
65	H	0.516026	0.484253	0.197565
66	H	0.542281	0.458451	0.984628
67	C	0.587994	0.177035	0
68	C	0.590791	0.182643	0.196142
69	N	0.575939	0.152865	0.323085
70	C	0.557872	0.116642	0.247033
71	C	0.541642	0.084102	0.381288
72	C	0.544625	0.090081	0.576421
73	S	0.523649	0.048026	0.70421
74	C	0.509614	0.019889	0.50188
75	C	0.48862	0.977799	0.505963
76	C	0.476332	0.953162	0.349723
77	C	0.456096	0.912592	0.397804
78	C	0.440056	0.880434	0.261435
79	N	0.445225	0.890797	0.074129
80	C	0.430475	0.861225	0.945982
81	C	0.411192	0.822565	0
82	N	0.405857	0.811867	0.185596
83	C	0.420621	0.841469	0.313826
84	C	0.453832	0.908054	0.593645
85	S	0.475363	0.951222	0.713372
86	C	0.521265	0.04325	0.340541
87	C	0.555261	0.111409	0.049674
88	N	0.570111	0.141183	0.922451
89	H	0.605131	0.211394	0.258765
90	H	0.558299	0.117495	0.651682
91	H	0.481376	0.963275	0.203143
92	H	0.434796	0.869889	0.797054
93	H	0.415971	0.832145	0.461656
94	H	0.440706	0.881738	0.677386
95	H	0.515302	0.031296	0.197565
96	H	0.541041	0.082901	0.984628
97	C	0.821225	0.410982	0
98	C	0.815575	0.408178	0.196142
99	N	0.845578	0.423067	0.323085
100	C	0.882075	0.441179	0.247033
101	C	0.91486	0.457448	0.381288
102	C	0.908837	0.45446	0.576421
103	S	0.95121	0.475488	0.70421
104	C	0.979559	0.489556	0.50188
105	C	0.021968	0.5106	0.505963
106	C	0.046791	0.522918	0.349723
107	C	0.087668	0.543203	0.397804
108	C	0.120068	0.559282	0.261435
109	N	0.109627	0.554101	0.074129
110	C	0.139423	0.568886	0.945982
111	C	0.178375	0.588217	0
112	N	0.189154	0.593567	0.185596
113	C	0.159328	0.578764	0.313826
114	C	0.09224	0.545472	0.593645
115	S	0.048746	0.523888	0.713372
116	C	0.956022	0.477874	0.340541
117	C	0.887348	0.443795	0.049674
118	N	0.857349	0.428908	0.922451
119	H	0.786607	0.393802	0.258765
120	H	0.881216	0.440754	0.651682
121	H	0.036601	0.517863	0.203143
122	H	0.130694	0.564554	0.797054
123	H	0.168723	0.583427	0.461656
124	H	0.118755	0.55863	0.677386
125	H	0.968066	0.48385	0.197565
126	H	0.916071	0.458048	0.984628
