data_C66H30N6O6S12_2023-05-13_10:49:15
#******************************************
#
# CIF file created by Zeo++
# Zeo++ is an open source package to
# analyze microporous materials
#
#*******************************************

_cell_length_a		40.5323   
_cell_length_b		40.8308   
_cell_length_c		7   
_cell_angle_alpha		90   
_cell_angle_beta		90   
_cell_angle_gamma		119.681   

_symmetry_space_group_name_H-M		'P1'
_symmetry_Int_Tables_number		1
_symmetry_cell_setting		Monoclinic

loop_
_symmetry_equiv_pos_as_xyz
'+x,+y,+z'

loop_
_atom_site_label
_atom_site_type_symbol
_atom_site_fract_x
_atom_site_fract_y
_atom_site_fract_z
1	C	0.371562	0.674644	0.999995
2	O	0.405079	0.680509	0.999991
3	C	0.341311	0.635445	0.999998
4	C	0.347237	0.606553	0
5	N	0.384756	0.613309	0
6	C	0.30255	0.628488	3e-06
7	O	0.275361	0.594703	5e-06
8	C	0.293193	0.658633	6e-06
9	C	0.257524	0.651359	5e-06
10	N	0.228089	0.612919	0
11	C	0.324902	0.697519	4e-06
12	O	0.317463	0.723588	7e-06
13	C	0.364285	0.706223	0.999999
14	C	0.392237	0.741698	0.999998
15	N	0.386565	0.773187	0
16	H	0.324077	0.578425	1e-06
17	H	0.249967	0.672951	8e-06
18	H	0.420551	0.746763	0.999997
19	C	0.628438	0.325356	0.999995
20	O	0.594921	0.319491	0.999991
21	C	0.658689	0.364555	0.999998
22	C	0.652763	0.393447	0
23	N	0.615244	0.386691	0
24	C	0.69745	0.371512	3e-06
25	O	0.724639	0.405297	5e-06
26	C	0.706807	0.341367	6e-06
27	C	0.742476	0.348641	5e-06
28	N	0.771911	0.387081	0
29	C	0.675098	0.302481	4e-06
30	O	0.682537	0.276412	7e-06
31	C	0.635715	0.293777	0.999999
32	C	0.607763	0.258302	0.999998
33	N	0.613435	0.226813	0
34	H	0.675923	0.421575	1e-06
35	H	0.750033	0.327049	8e-06
36	H	0.579449	0.253237	0.999997
37	C	0.407693	0.590757	0
38	C	0.415789	0.582798	0.821839
39	S	0.440233	0.558764	0.835813
40	C	0.44008	0.558914	0.082333
41	C	0.457439	0.541846	0.196921
42	C	0.458529	0.540775	0.394186
43	C	0.477773	0.521855	0.463521
44	C	0.491272	0.508581	0.318838
45	C	0.511967	0.488234	0.34135
46	C	0.522019	0.478351	0.511657
47	C	0.542313	0.458397	0.485431
48	C	0.547636	0.453164	0.295189
49	C	0.566836	0.434286	0.215403
50	C	0.572139	0.429072	0.024413
51	C	0.592307	0.409243	0
52	C	0.602201	0.399515	0.168949
53	S	0.586912	0.414548	0.359581
54	S	0.527638	0.472826	0.152277
55	S	0.480061	0.519604	0.1006
56	C	0.421373	0.577307	0.14969
57	H	0.40871	0.589757	0.684439
58	H	0.446142	0.552955	0.487408
59	H	0.481322	0.518365	0.614111
60	H	0.515304	0.484953	0.651117
61	H	0.552394	0.448486	0.603166
62	H	0.561981	0.439059	0.907343
63	H	0.617545	0.38443	0.190767
64	H	0.417677	0.58094	0.29989
65	C	0.409063	0.818291	0
66	C	0.417004	0.834211	0.821839
67	S	0.44098	0.882278	0.835813
68	C	0.44083	0.881978	0.082333
69	C	0.457857	0.916113	0.196921
70	C	0.458927	0.918256	0.394186
71	C	0.477802	0.956097	0.463521
72	C	0.491044	0.982643	0.318838
73	C	0.511343	0.023338	0.34135
74	C	0.521202	0.043103	0.511657
75	C	0.541108	0.083011	0.485431
76	C	0.546329	0.093477	0.295189
77	C	0.565162	0.131233	0.215403
78	C	0.570364	0.141662	0.024413
79	C	0.590146	0.18132	0
80	C	0.599851	0.200776	0.168949
81	S	0.584854	0.170711	0.359581
82	S	0.526714	0.054153	0.152277
83	S	0.480047	0.960597	0.1006
84	C	0.422481	0.845192	0.14969
85	H	0.410061	0.820291	0.684439
86	H	0.446776	0.893897	0.487408
87	H	0.481283	0.963077	0.614111
88	H	0.514616	0.0299	0.651117
89	H	0.550997	0.102834	0.603166
90	H	0.560401	0.121687	0.907343
91	H	0.6149	0.230947	0.190767
92	H	0.418856	0.837925	0.29989
93	C	0.182654	0.590367	0
94	C	0.166618	0.582408	0.821839
95	S	0.118197	0.558374	0.835813
96	C	0.1185	0.558524	0.082333
97	C	0.084114	0.541457	0.196921
98	C	0.081954	0.540385	0.394186
99	C	0.043836	0.521465	0.463521
100	C	0.017094	0.508191	0.318838
101	C	0.9761	0.487844	0.34135
102	C	0.95619	0.477961	0.511657
103	C	0.915989	0.458007	0.485431
104	C	0.905446	0.452774	0.295189
105	C	0.867412	0.433896	0.215403
106	C	0.856907	0.428682	0.024413
107	C	0.816957	0.408853	0
108	C	0.797358	0.399125	0.168949
109	S	0.827644	0.414157	0.359581
110	S	0.945058	0.472436	0.152277
111	S	0.039303	0.519215	0.1006
112	C	0.155556	0.576917	0.14969
113	H	0.18064	0.589367	0.684439
114	H	0.106493	0.552564	0.487408
115	H	0.036805	0.517975	0.614111
116	H	0.96949	0.484563	0.651117
117	H	0.896019	0.448096	0.603166
118	H	0.877028	0.43867	0.907343
119	H	0.766965	0.384039	0.190767
120	H	0.162876	0.580551	0.29989
