data_C72H36N6O6S6_2023-05-12_05:25:28
#******************************************
#
# CIF file created by Zeo++
# Zeo++ is an open source package to
# analyze microporous materials
#
#*******************************************

_cell_length_a		40.4371   
_cell_length_b		40.7356   
_cell_length_c		7   
_cell_angle_alpha		90   
_cell_angle_beta		90   
_cell_angle_gamma		119.68   

_symmetry_space_group_name_H-M		'P1'
_symmetry_Int_Tables_number		1
_symmetry_cell_setting		Monoclinic

loop_
_symmetry_equiv_pos_as_xyz
'+x,+y,+z'

loop_
_atom_site_label
_atom_site_type_symbol
_atom_site_fract_x
_atom_site_fract_y
_atom_site_fract_z
1	C	0.371652	0.674662	0.999995
2	O	0.405248	0.680542	0.999991
3	C	0.341331	0.635373	0.999998
4	C	0.347271	0.606412	0
5	N	0.384878	0.613185	0
6	C	0.302478	0.628399	3e-06
7	O	0.275226	0.594535	5e-06
8	C	0.293098	0.658615	6e-06
9	C	0.257346	0.651323	5e-06
10	N	0.227843	0.612794	0
11	C	0.324882	0.69759	4e-06
12	O	0.317425	0.72372	7e-06
13	C	0.364358	0.706315	0.999999
14	C	0.392374	0.741872	0.999998
15	N	0.386688	0.773436	0
16	H	0.324057	0.57822	1e-06
17	H	0.249771	0.672966	8e-06
18	H	0.420755	0.74695	0.999997
19	C	0.628348	0.325338	0.999995
20	O	0.594752	0.319458	0.999991
21	C	0.658669	0.364627	0.999998
22	C	0.652729	0.393588	0
23	N	0.615122	0.386815	0
24	C	0.697522	0.371601	3e-06
25	O	0.724774	0.405465	5e-06
26	C	0.706902	0.341385	6e-06
27	C	0.742654	0.348677	5e-06
28	N	0.772157	0.387206	0
29	C	0.675118	0.30241	4e-06
30	O	0.682575	0.27628	7e-06
31	C	0.635642	0.293685	0.999999
32	C	0.607626	0.258128	0.999998
33	N	0.613312	0.226564	0
34	H	0.675943	0.42178	1e-06
35	H	0.750229	0.327034	8e-06
36	H	0.579245	0.25305	0.999997
37	C	0.592131	0.40942	0
38	C	0.588011	0.413473	0.191036
39	C	0.56773	0.433413	0.22247
40	C	0.557005	0.443955	0.054796
41	C	0.535802	0.4648	0.03004
42	C	0.526964	0.47349	0.849874
43	C	0.506925	0.493191	0.830745
44	C	0.494971	0.504944	0.991614
45	C	0.474783	0.524792	0.974623
46	C	0.462618	0.536752	0.135147
47	C	0.441329	0.557684	0.119525
48	C	0.427623	0.57116	0.264144
49	C	0.4083	0.590158	0.195335
50	C	0.407869	0.59058	0
51	S	0.429935	0.568885	0.900028
52	C	0.471459	0.528061	0.315359
53	C	0.491491	0.508365	0.334734
54	C	0.503445	0.496612	0.173848
55	C	0.523634	0.476764	0.190604
56	S	0.572351	0.428864	0.860518
57	H	0.598721	0.402945	0.303256
58	H	0.561489	0.43955	0.364105
59	H	0.535378	0.465217	0.719029
60	H	0.500775	0.499237	0.687798
61	H	0.468739	0.530735	0.831339
62	H	0.431082	0.567761	0.414916
63	H	0.395658	0.602588	0.285514
64	H	0.462977	0.5364	0.445664
65	H	0.497636	0.502324	0.477654
66	H	0.529749	0.470751	0.333479
67	C	0.589968	0.180966	0
68	C	0.585925	0.172862	0.191036
69	C	0.566032	0.132982	0.22247
70	C	0.555515	0.111896	0.054796
71	C	0.53472	0.070205	0.03004
72	C	0.52605	0.052825	0.849874
73	C	0.506396	0.013423	0.830745
74	C	0.494671	0.989917	0.991614
75	C	0.474871	0.950221	0.974623
76	C	0.462939	0.9263	0.135147
77	C	0.442057	0.884438	0.119525
78	C	0.428613	0.857486	0.264144
79	C	0.40966	0.819491	0.195335
80	C	0.409239	0.818644	0
81	S	0.430883	0.862034	0.900028
82	C	0.471609	0.943683	0.315359
83	C	0.491258	0.983074	0.334734
84	C	0.502983	0.00658	0.173848
85	C	0.522785	0.046278	0.190604
86	S	0.57057	0.142074	0.860518
87	H	0.596428	0.19392	0.303256
88	H	0.559909	0.120708	0.364105
89	H	0.534304	0.069371	0.719029
90	H	0.500365	0.00133	0.687798
91	H	0.468942	0.938335	0.831339
92	H	0.432004	0.864286	0.414916
93	H	0.39726	0.794632	0.285514
94	H	0.46329	0.927005	0.445664
95	H	0.497285	0.995157	0.477654
96	H	0.528783	0.058303	0.333479
97	C	0.81731	0.409029	0
98	C	0.825474	0.41308	0.191036
99	C	0.865647	0.433019	0.22247
100	C	0.886889	0.443564	0.054796
101	C	0.928887	0.464409	0.03004
102	C	0.946395	0.473099	0.849874
103	C	0.986087	0.492801	0.830745
104	C	0.009766	0.504554	0.991614
105	C	0.049755	0.524402	0.974623
106	C	0.073852	0.536362	0.135147
107	C	0.116022	0.557293	0.119525
108	C	0.143172	0.570768	0.264144
109	C	0.181448	0.589766	0.195335
110	C	0.182301	0.59019	0
111	S	0.138591	0.568495	0.900028
112	C	0.056341	0.52767	0.315359
113	C	0.016659	0.507975	0.334734
114	C	0.99298	0.496222	0.173848
115	C	0.95299	0.476373	0.190604
116	S	0.856488	0.428476	0.860518
117	H	0.804261	0.40255	0.303256
118	H	0.878011	0.439155	0.364105
119	H	0.929727	0.464826	0.719029
120	H	0.998269	0.498847	0.687798
121	H	0.061728	0.530344	0.831339
122	H	0.136323	0.567368	0.414916
123	H	0.20649	0.602195	0.285514
124	H	0.073141	0.536009	0.445664
125	H	0.004487	0.501933	0.477654
126	H	0.940877	0.47036	0.333479
