data_C57H27N9O6S6_2023-05-29_15:20:16
#******************************************
#
# CIF file created by Zeo++
# Zeo++ is an open source package to
# analyze microporous materials
#
#*******************************************

_cell_length_a		36.3515   
_cell_length_b		36.6501   
_cell_length_c		7   
_cell_angle_alpha		90   
_cell_angle_beta		90   
_cell_angle_gamma		119.644   

_symmetry_space_group_name_H-M		'P1'
_symmetry_Int_Tables_number		1
_symmetry_cell_setting		Monoclinic

loop_
_symmetry_equiv_pos_as_xyz
'+x,+y,+z'

loop_
_atom_site_label
_atom_site_type_symbol
_atom_site_fract_x
_atom_site_fract_y
_atom_site_fract_z
1	C	0.375952	0.67555	0.999995
2	O	0.413319	0.682083	0.999991
3	C	0.342255	0.631896	0.999998
4	C	0.348886	0.599719	0
5	N	0.390714	0.607244	0
6	C	0.299041	0.624148	3e-06
7	O	0.268753	0.586523	5e-06
8	C	0.288583	0.65772	6e-06
9	C	0.248818	0.649619	5e-06
10	N	0.216029	0.60681	0
11	C	0.323907	0.701026	4e-06
12	O	0.315591	0.730058	7e-06
13	C	0.367812	0.71072	0.999999
14	C	0.398949	0.750226	0.999998
15	N	0.392599	0.785295	0
16	H	0.323085	0.568395	1e-06
17	H	0.240374	0.673666	8e-06
18	H	0.430516	0.755867	0.999997
19	C	0.624048	0.32445	0.999995
20	O	0.586681	0.317917	0.999991
21	C	0.657745	0.368104	0.999998
22	C	0.651114	0.400281	0
23	N	0.609286	0.392756	0
24	C	0.700959	0.375852	3e-06
25	O	0.731247	0.413477	5e-06
26	C	0.711417	0.34228	6e-06
27	C	0.751182	0.350381	5e-06
28	N	0.783971	0.39319	0
29	C	0.676093	0.298974	4e-06
30	O	0.684409	0.269942	7e-06
31	C	0.632188	0.28928	0.999999
32	C	0.601051	0.249774	0.999998
33	N	0.607401	0.214705	0
34	H	0.676915	0.431605	1e-06
35	H	0.759626	0.326334	8e-06
36	H	0.569484	0.244133	0.999997
37	C	0.416307	0.582129	0
38	C	0.417813	0.580652	0.194963
39	C	0.439658	0.559215	0.254797
40	C	0.454108	0.545034	0.10382
41	C	0.477774	0.521811	0.109058
42	C	0.488874	0.510919	0.282674
43	C	0.511264	0.488946	0.286836
44	C	0.522556	0.477864	0.11585
45	C	0.546154	0.454708	0.109399
46	C	0.56083	0.440307	0.258523
47	C	0.582555	0.418987	0.19528
48	C	0.583693	0.417871	0
49	S	0.55948	0.441631	0.893025
50	N	0.512346	0.487883	0.945767
51	C	0.490602	0.509222	0.946128
52	S	0.440327	0.558557	0.889849
53	H	0.404218	0.593993	0.290852
54	H	0.444304	0.554655	0.403805
55	H	0.480445	0.519192	0.418354
56	H	0.519372	0.48099	0.423709
57	H	0.556392	0.444662	0.408015
58	H	0.59634	0.405459	0.288951
59	H	0.483878	0.515821	0.802987
60	C	0.417648	0.835526	0
61	C	0.41912	0.83848	0.194963
62	C	0.4405	0.881353	0.254797
63	C	0.454644	0.909715	0.10382
64	C	0.477806	0.956162	0.109058
65	C	0.488669	0.977946	0.282674
66	C	0.510584	0.021891	0.286836
67	C	0.521636	0.044053	0.11585
68	C	0.544731	0.090367	0.109399
69	C	0.559094	0.11917	0.258523
70	C	0.580357	0.161809	0.19528
71	C	0.58147	0.164041	0
72	S	0.557773	0.116521	0.893025
73	N	0.511644	0.024016	0.945767
74	C	0.490361	0.981339	0.946128
75	S	0.441157	0.882668	0.889849
76	H	0.405815	0.811798	0.290852
77	H	0.445049	0.890473	0.403805
78	H	0.480418	0.961402	0.418354
79	H	0.518518	0.037802	0.423709
80	H	0.55475	0.110459	0.408015
81	H	0.593849	0.188864	0.288951
82	H	0.483779	0.968141	0.802987
83	C	0.165387	0.581695	0
84	C	0.162409	0.580218	0.194963
85	C	0.119184	0.558781	0.254797
86	C	0.090591	0.5446	0.10382
87	C	0.043763	0.521377	0.109058
88	C	0.0218	0.510484	0.282674
89	C	0.977495	0.488512	0.286836
90	C	0.955151	0.477431	0.11585
91	C	0.908458	0.454274	0.109399
92	C	0.879419	0.439873	0.258523
93	C	0.83643	0.418553	0.19528
94	C	0.83418	0.417437	0
95	S	0.882089	0.441197	0.893025
96	N	0.975352	0.48745	0.945767
97	C	0.01838	0.508788	0.946128
98	S	0.117859	0.558124	0.889849
99	H	0.18931	0.593558	0.290852
100	H	0.10999	0.554221	0.403805
101	H	0.038479	0.518755	0.418354
102	H	0.961453	0.480556	0.423709
103	H	0.888201	0.444228	0.408015
104	H	0.809154	0.405026	0.288951
105	H	0.031685	0.515386	0.802987
