data_C42H18N6O6S6_2023-05-30_05:58:49
#******************************************
#
# CIF file created by Zeo++
# Zeo++ is an open source package to
# analyze microporous materials
#
#*******************************************

_cell_length_a		24.1688   
_cell_length_b		24.4677   
_cell_length_c		7   
_cell_angle_alpha		90   
_cell_angle_beta		90   
_cell_angle_gamma		119.467   

_symmetry_space_group_name_H-M		'P1'
_symmetry_Int_Tables_number		1
_symmetry_cell_setting		Monoclinic

loop_
_symmetry_equiv_pos_as_xyz
'+x,+y,+z'

loop_
_atom_site_label
_atom_site_type_symbol
_atom_site_fract_x
_atom_site_fract_y
_atom_site_fract_z
1	C	0.397385	0.67995	0.999995
2	O	0.453553	0.689718	0.999991
3	C	0.346938	0.614676	0.999998
4	C	0.357085	0.566563	0
5	N	0.419957	0.577814	0
6	C	0.281983	0.60309	3e-06
7	O	0.236632	0.54683	5e-06
8	C	0.266073	0.65329	6e-06
9	C	0.206307	0.641175	5e-06
10	N	0.157222	0.577165	0
11	C	0.318969	0.718043	4e-06
12	O	0.306304	0.761454	7e-06
13	C	0.384954	0.732538	0.999999
14	C	0.431572	0.791611	0.999998
15	N	0.421832	0.844049	0
16	H	0.318448	0.519724	1e-06
17	H	0.193478	0.677132	8e-06
18	H	0.479021	0.800046	0.999997
19	C	0.602615	0.32005	0.999995
20	O	0.546447	0.310282	0.999991
21	C	0.653062	0.385324	0.999998
22	C	0.642915	0.433437	0
23	N	0.580043	0.422186	0
24	C	0.718017	0.39691	3e-06
25	O	0.763368	0.45317	5e-06
26	C	0.733927	0.34671	6e-06
27	C	0.793693	0.358825	5e-06
28	N	0.842778	0.422835	0
29	C	0.681031	0.281957	4e-06
30	O	0.693696	0.238546	7e-06
31	C	0.615046	0.267462	0.999999
32	C	0.568428	0.208389	0.999998
33	N	0.578168	0.155951	0
34	H	0.681552	0.480276	1e-06
35	H	0.806522	0.322868	8e-06
36	H	0.520979	0.199954	0.999997
37	C	0.458587	0.54026	0
38	C	0.518434	0.549595	0.039972
39	C	0.536246	0.504712	0.104593
40	C	0.541413	0.45974	0
41	C	0.559586	0.422642	0.111269
42	C	0.567791	0.440522	0.300414
43	S	0.553494	0.501491	0.340828
44	S	0.575107	0.62623	0.999169
45	C	0.519227	0.645902	0.929648
46	C	0.458541	0.595362	0.936659
47	H	0.566396	0.38489	0.057212
48	H	0.581483	0.420786	0.417341
49	H	0.533632	0.693543	0.887007
50	H	0.416691	0.598313	0.898076
51	C	0.459236	0.919157	0
52	C	0.449196	0.968724	0.039972
53	C	0.494202	0.030629	0.104593
54	C	0.539433	0.080196	0
55	C	0.576597	0.134753	0.111269
56	C	0.558504	0.125127	0.300414
57	S	0.497261	0.050762	0.340828
58	S	0.371418	0.948591	0.999169
59	C	0.352206	0.874226	0.929648
60	C	0.403749	0.864599	0.936659
61	H	0.614541	0.178793	0.057212
62	H	0.578232	0.158104	0.417341
63	H	0.304078	0.841248	0.887007
64	H	0.401224	0.820559	0.898076
65	C	0.081188	0.539611	0
66	C	0.031382	0.480708	0.039972
67	C	0.968563	0.463687	0.104593
68	C	0.918166	0.459091	0
69	C	0.862829	0.441632	0.111269
70	C	0.872716	0.433379	0.300414
71	S	0.948257	0.446774	0.340828
72	S	0.052487	0.424206	0.999169
73	C	0.127579	0.4789	0.929648
74	C	0.136721	0.539066	0.936659
75	H	0.818075	0.435344	0.057212
76	H	0.839297	0.420137	0.417341
77	H	0.161302	0.464236	0.887007
78	H	0.181097	0.580155	0.898076
