data_C60H24N6O6S12_2023-05-26_22:17:07
#******************************************
#
# CIF file created by Zeo++
# Zeo++ is an open source package to
# analyze microporous materials
#
#*******************************************

_cell_length_a		39.6931   
_cell_length_b		39.9917   
_cell_length_c		7   
_cell_angle_alpha		90   
_cell_angle_beta		90   
_cell_angle_gamma		119.674   

_symmetry_space_group_name_H-M		'P1'
_symmetry_Int_Tables_number		1
_symmetry_cell_setting		Monoclinic

loop_
_symmetry_equiv_pos_as_xyz
'+x,+y,+z'

loop_
_atom_site_label
_atom_site_type_symbol
_atom_site_fract_x
_atom_site_fract_y
_atom_site_fract_z
1	C	0.372369	0.67481	0.999995
2	O	0.406594	0.680799	0.999991
3	C	0.341484	0.634792	0.999998
4	C	0.34754	0.605295	0
5	N	0.385851	0.612193	0
6	C	0.301904	0.627689	3e-06
7	O	0.274146	0.593198	5e-06
8	C	0.292345	0.658465	6e-06
9	C	0.255924	0.651039	5e-06
10	N	0.225872	0.611795	0
11	C	0.324719	0.698164	4e-06
12	O	0.317119	0.724778	7e-06
13	C	0.364934	0.707051	0.999999
14	C	0.393471	0.743267	0.999998
15	N	0.387675	0.775415	0
16	H	0.323894	0.57658	1e-06
17	H	0.248204	0.673083	8e-06
18	H	0.422384	0.748438	0.999997
19	C	0.627631	0.32519	0.999995
20	O	0.593406	0.319201	0.999991
21	C	0.658516	0.365208	0.999998
22	C	0.65246	0.394705	0
23	N	0.614149	0.387807	0
24	C	0.698096	0.372311	3e-06
25	O	0.725854	0.406802	5e-06
26	C	0.707655	0.341535	6e-06
27	C	0.744076	0.348961	5e-06
28	N	0.774128	0.388205	0
29	C	0.675281	0.301836	4e-06
30	O	0.682881	0.275222	7e-06
31	C	0.635066	0.292949	0.999999
32	C	0.606529	0.256733	0.999998
33	N	0.612325	0.224585	0
34	H	0.676106	0.42342	1e-06
35	H	0.751796	0.326917	8e-06
36	H	0.577616	0.251562	0.999997
37	C	0.590724	0.41083	0
38	C	0.585907	0.415564	0.189801
39	C	0.565153	0.435964	0.214938
40	C	0.554887	0.446055	0.043676
41	C	0.53371	0.466869	0.020603
42	C	0.520115	0.480229	0.167344
43	C	0.500508	0.499501	0.096984
44	C	0.499494	0.500501	0.903016
45	C	0.479887	0.519773	0.832655
46	C	0.466291	0.533133	0.979397
47	C	0.445115	0.553948	0.956324
48	C	0.434853	0.564042	0.785062
49	C	0.414097	0.58444	0.810199
50	C	0.409276	0.58917	0
51	S	0.428967	0.569808	0.14591
52	S	0.477388	0.522223	0.200926
53	S	0.522614	0.477779	0.799074
54	S	0.57103	0.430188	0.85409
55	H	0.59646	0.405192	0.305267
56	H	0.558227	0.44277	0.354119
57	H	0.523684	0.476719	0.317978
58	H	0.476318	0.523283	0.682022
59	H	0.441782	0.557239	0.645881
60	H	0.403547	0.594814	0.694733
61	C	0.588549	0.178141	0
62	C	0.583827	0.168672	0.189801
63	C	0.563477	0.127874	0.214938
64	C	0.553411	0.107693	0.043676
65	C	0.532647	0.066065	0.020603
66	C	0.519319	0.039342	0.167344
67	C	0.500094	0.000799	0.096984
68	C	0.499097	0.998804	0.903016
69	C	0.479871	0.960261	0.832655
70	C	0.466543	0.933537	0.979397
71	C	0.445779	0.89191	0.956324
72	C	0.435709	0.871728	0.785062
73	C	0.415361	0.830931	0.810199
74	C	0.410643	0.821462	0
75	S	0.429957	0.860178	0.14591
76	S	0.477427	0.955354	0.200926
77	S	0.521763	0.044248	0.799074
78	S	0.569238	0.139425	0.85409
79	H	0.594174	0.189416	0.305267
80	H	0.556687	0.11426	0.354119
81	H	0.522821	0.046361	0.317978
82	H	0.476369	0.953242	0.682022
83	H	0.442496	0.885342	0.645881
84	H	0.405012	0.810187	0.694733
85	C	0.820124	0.410433	0
86	C	0.829664	0.415167	0.189801
87	C	0.870767	0.435566	0.214938
88	C	0.8911	0.445656	0.043676
89	C	0.93304	0.466469	0.020603
90	C	0.959964	0.479832	0.167344
91	C	0.998796	0.499103	0.096984
92	C	0.000807	0.500099	0.903016
93	C	0.039639	0.51937	0.832655
94	C	0.066563	0.532733	0.979397
95	C	0.108503	0.553546	0.956324
96	C	0.128836	0.563633	0.785062
97	C	0.16994	0.584033	0.810199
98	C	0.179479	0.588772	0
99	S	0.140473	0.569418	0.14591
100	S	0.044582	0.521826	0.200926
101	S	0.955021	0.477376	0.799074
102	S	0.85913	0.42979	0.85409
103	H	0.808764	0.404796	0.305267
104	H	0.884484	0.442373	0.354119
105	H	0.952893	0.476324	0.317978
106	H	0.04671	0.522878	0.682022
107	H	0.11512	0.556822	0.645881
108	H	0.190839	0.594402	0.694733
