data_C72H36N12O6S6_2023-05-29_06:29:13
#******************************************
#
# CIF file created by Zeo++
# Zeo++ is an open source package to
# analyze microporous materials
#
#*******************************************

_cell_length_a		42.5346   
_cell_length_b		42.8331   
_cell_length_c		7   
_cell_angle_alpha		90   
_cell_angle_beta		90   
_cell_angle_gamma		119.696   

_symmetry_space_group_name_H-M		'P1'
_symmetry_Int_Tables_number		1
_symmetry_cell_setting		Monoclinic

loop_
_symmetry_equiv_pos_as_xyz
'+x,+y,+z'

loop_
_atom_site_label
_atom_site_type_symbol
_atom_site_fract_x
_atom_site_fract_y
_atom_site_fract_z
1	C	0.369764	0.674272	0.999995
2	O	0.401706	0.679864	0.999991
3	C	0.340927	0.6369	0.999998
4	C	0.346565	0.609354	0
5	N	0.38232	0.615796	0
6	C	0.303988	0.630267	3e-06
7	O	0.27807	0.598056	5e-06
8	C	0.29508	0.659008	6e-06
9	C	0.261088	0.652072	5e-06
10	N	0.233028	0.615424	0
11	C	0.325308	0.696081	4e-06
12	O	0.318226	0.720935	7e-06
13	C	0.36284	0.70438	0.999999
14	C	0.389485	0.738201	0.999998
15	N	0.38409	0.768223	0
16	H	0.324487	0.582538	1e-06
17	H	0.253894	0.672658	8e-06
18	H	0.416469	0.74303	0.999997
19	C	0.630236	0.325728	0.999995
20	O	0.598294	0.320136	0.999991
21	C	0.659073	0.3631	0.999998
22	C	0.653435	0.390646	0
23	N	0.61768	0.384204	0
24	C	0.696012	0.369733	3e-06
25	O	0.72193	0.401944	5e-06
26	C	0.70492	0.340992	6e-06
27	C	0.738912	0.347928	5e-06
28	N	0.766972	0.384576	0
29	C	0.674692	0.303919	4e-06
30	O	0.681774	0.279065	7e-06
31	C	0.63716	0.29562	0.999999
32	C	0.610515	0.261799	0.999998
33	N	0.61591	0.231777	0
34	H	0.675513	0.417462	1e-06
35	H	0.746106	0.327342	8e-06
36	H	0.583531	0.25697	0.999997
37	C	0.595829	0.405705	0
38	C	0.596155	0.405383	0.191008
39	C	0.576944	0.424281	0.26531
40	C	0.565677	0.435365	0.083829
41	C	0.546231	0.454496	0.072665
42	N	0.535467	0.465091	0.223974
43	C	0.517264	0.483	0.171665
44	C	0.50228	0.49775	0.296013
45	C	0.484529	0.515216	0.223751
46	C	0.481273	0.518412	0.027949
47	C	0.49626	0.503658	0.903658
48	C	0.514009	0.486195	0.975962
49	S	0.534512	0.466015	0.857713
50	N	0.463075	0.536318	0.975549
51	C	0.452361	0.54687	0.12716
52	C	0.432922	0.566003	0.126412
53	C	0.423476	0.57529	0.961199
54	C	0.404171	0.594295	0
55	C	0.401372	0.597061	0.188853
56	C	0.419439	0.579283	0.289976
57	S	0.464022	0.535402	0.342259
58	C	0.577188	0.424043	0.933618
59	H	0.608216	0.393518	0.279654
60	H	0.553378	0.406042	0.350927
61	H	0.595218	0.447723	0.350932
62	H	0.504706	0.495369	0.449121
63	H	0.493837	0.506037	0.750531
64	H	0.429247	0.569601	0.819033
65	H	0.388262	0.60997	0.259245
66	H	0.441818	0.598719	0.378533
67	H	0.399947	0.557017	0.37858
68	H	0.573702	0.427474	0.783707
69	C	0.593705	0.188404	0
70	C	0.594026	0.189047	0.191008
71	C	0.575171	0.151245	0.26531
72	C	0.564112	0.129074	0.083829
73	C	0.545024	0.090809	0.072665
74	N	0.534453	0.069623	0.223974
75	C	0.516584	0.033802	0.171665
76	C	0.501868	0.004308	0.296013
77	C	0.484442	0.969375	0.223751
78	C	0.481253	0.962975	0.027949
79	C	0.495973	0.992476	0.903658
80	C	0.513397	0.027404	0.975962
81	S	0.533531	0.067759	0.857713
82	N	0.463387	0.927162	0.975549
83	C	0.45286	0.906068	0.12716
84	C	0.43377	0.867807	0.126412
85	C	0.424503	0.849225	0.961199
86	C	0.405542	0.811225	0
87	C	0.402781	0.805704	0.188853
88	C	0.420519	0.841261	0.289976
89	S	0.464301	0.92901	0.342259
90	C	0.575408	0.151723	0.933618
91	H	0.605864	0.212779	0.279654
92	H	0.593626	0.146042	0.350927
93	H	0.551525	0.146038	0.350932
94	H	0.504244	0.009076	0.449121
95	H	0.4936	0.987713	0.750531
96	H	0.43018	0.860594	0.819033
97	H	0.389901	0.779895	0.259245
98	H	0.40087	0.844098	0.378533
99	H	0.442993	0.844093	0.37858
100	H	0.571985	0.144862	0.783707
101	C	0.809904	0.405334	0
102	C	0.809257	0.405013	0.191008
103	C	0.847323	0.423917	0.26531
104	C	0.86965	0.435003	0.083829
105	C	0.908183	0.454138	0.072665
106	N	0.929518	0.464729	0.223974
107	C	0.965589	0.482641	0.171665
108	C	0.99529	0.497385	0.296013
109	C	0.030468	0.514852	0.223751
110	C	0.036913	0.518056	0.027949
111	C	0.007205	0.503309	0.903658
112	C	0.972032	0.485844	0.975962
113	S	0.931394	0.465669	0.857713
114	N	0.072976	0.535962	0.975549
115	C	0.094217	0.546505	0.12716
116	C	0.132747	0.565633	0.126412
117	C	0.151459	0.574927	0.961199
118	C	0.189725	0.593923	0
119	C	0.195285	0.596677	0.188853
120	C	0.159479	0.578899	0.289976
121	S	0.071115	0.535031	0.342259
122	C	0.846842	0.423677	0.933618
123	H	0.785358	0.393145	0.279654
124	H	0.852434	0.447358	0.350927
125	H	0.852695	0.405682	0.350932
126	H	0.990488	0.494998	0.449121
127	H	0.012001	0.505693	0.750531
128	H	0.140011	0.569248	0.819033
129	H	0.221275	0.609577	0.259245
130	H	0.156751	0.556626	0.378533
131	H	0.156498	0.598333	0.37858
132	H	0.853751	0.427107	0.783707
