data_C54H24N12O6_2023-05-13_07:55:33
#******************************************
#
# CIF file created by Zeo++
# Zeo++ is an open source package to
# analyze microporous materials
#
#*******************************************

_cell_length_a		20.6607   
_cell_length_b		20.9597   
_cell_length_c		7   
_cell_angle_alpha		90   
_cell_angle_beta		90   
_cell_angle_gamma		119.377   

_symmetry_space_group_name_H-M		'P1'
_symmetry_Int_Tables_number		1
_symmetry_cell_setting		Monoclinic

loop_
_symmetry_equiv_pos_as_xyz
'+x,+y,+z'

loop_
_atom_site_label
_atom_site_type_symbol
_atom_site_fract_x
_atom_site_fract_y
_atom_site_fract_z
1	C	0.408232	0.68216	0.999995
2	O	0.473917	0.693552	0.999991
3	C	0.349358	0.606028	0.999998
4	C	0.36133	0.549911	0
5	N	0.434854	0.563034	0
6	C	0.273399	0.592515	3e-06
7	O	0.220466	0.526896	5e-06
8	C	0.25468	0.651065	6e-06
9	C	0.184792	0.636935	5e-06
10	N	0.127509	0.562277	0
11	C	0.31642	0.726588	4e-06
12	O	0.301513	0.777221	7e-06
13	C	0.393578	0.743495	0.999999
14	C	0.447987	0.812394	0.999998
15	N	0.436482	0.873555	0
16	H	0.316232	0.495282	1e-06
17	H	0.169708	0.678873	8e-06
18	H	0.503475	0.822232	0.999997
19	C	0.591768	0.31784	0.999995
20	O	0.526083	0.306448	0.999991
21	C	0.650642	0.393972	0.999998
22	C	0.63867	0.450089	0
23	N	0.565146	0.436966	0
24	C	0.726601	0.407485	3e-06
25	O	0.779534	0.473104	5e-06
26	C	0.74532	0.348935	6e-06
27	C	0.815208	0.363065	5e-06
28	N	0.872491	0.437723	0
29	C	0.68358	0.273412	4e-06
30	O	0.698487	0.222779	7e-06
31	C	0.606422	0.256505	0.999999
32	C	0.552013	0.187606	0.999998
33	N	0.563518	0.126445	0
34	H	0.683768	0.504718	1e-06
35	H	0.830292	0.321127	8e-06
36	H	0.496525	0.177768	0.999997
37	C	0.519878	0.480767	0
38	C	0.480122	0.519233	0
39	C	0.459864	0.538836	0.174912
40	C	0.419772	0.577629	0.188026
41	C	0.401362	0.595442	0.363178
42	C	0.423419	0.5741	0.524165
43	N	0.461475	0.53728	0.518783
44	C	0.480132	0.519226	0.349239
45	C	0.519869	0.480776	0.349239
46	N	0.538527	0.462723	0.518784
47	C	0.576581	0.425902	0.524167
48	C	0.598639	0.40456	0.363181
49	C	0.580228	0.422372	0.188028
50	C	0.540137	0.461165	0.174913
51	H	0.402028	0.594796	0.061179
52	H	0.37076	0.625052	0.372681
53	H	0.411072	0.586048	0.6662
54	H	0.588929	0.413955	0.666205
55	H	0.629242	0.374951	0.372687
56	H	0.59797	0.405203	0.06118
57	C	0.518364	0.038089	0
58	C	0.480078	0.961156	0
59	C	0.460567	0.921952	0.174912
60	C	0.421955	0.844367	0.188026
61	C	0.404226	0.808741	0.363178
62	C	0.425468	0.851426	0.524165
63	N	0.462116	0.925067	0.518783
64	C	0.480085	0.961174	0.349239
65	C	0.518355	0.038072	0.349239
66	N	0.536323	0.074177	0.518784
67	C	0.572971	0.147819	0.524167
68	C	0.594214	0.190504	0.363181
69	C	0.576485	0.154878	0.188028
70	C	0.537874	0.077293	0.174913
71	H	0.404869	0.810031	0.061179
72	H	0.374754	0.749521	0.372681
73	H	0.413576	0.82753	0.6662
74	H	0.584863	0.171713	0.666205
75	H	0.623684	0.249724	0.372687
76	H	0.593574	0.189214	0.06118
77	C	0.960603	0.48001	0
78	C	0.038645	0.518476	0
79	C	0.078414	0.538077	0.174912
80	C	0.157117	0.576869	0.188026
81	C	0.193257	0.594683	0.363178
82	C	0.149957	0.57334	0.524165
83	N	0.075254	0.536519	0.518783
84	C	0.038627	0.518466	0.349239
85	C	0.960621	0.480018	0.349239
86	N	0.923995	0.461966	0.518784
87	C	0.849292	0.425145	0.524167
88	C	0.805992	0.403802	0.363181
89	C	0.842131	0.421616	0.188028
90	C	0.920834	0.460408	0.174913
91	H	0.191948	0.594039	0.061179
92	H	0.25333	0.624292	0.372681
93	H	0.174197	0.585288	0.6662
94	H	0.825053	0.413198	0.666205
95	H	0.745918	0.374192	0.372687
96	H	0.8073	0.404449	0.06118
