data_C66H24N12O6S12_2023-05-18_20:33:03
#******************************************
#
# CIF file created by Zeo++
# Zeo++ is an open source package to
# analyze microporous materials
#
#*******************************************

_cell_length_a		42.6486   
_cell_length_b		42.9471   
_cell_length_c		7   
_cell_angle_alpha		90   
_cell_angle_beta		90   
_cell_angle_gamma		119.696   

_symmetry_space_group_name_H-M		'P1'
_symmetry_Int_Tables_number		1
_symmetry_cell_setting		Monoclinic

loop_
_symmetry_equiv_pos_as_xyz
'+x,+y,+z'

loop_
_atom_site_label
_atom_site_type_symbol
_atom_site_fract_x
_atom_site_fract_y
_atom_site_fract_z
1	C	0.369667	0.674252	0.999995
2	O	0.401523	0.679829	0.999991
3	C	0.340906	0.636979	0.999998
4	C	0.346529	0.609506	0
5	N	0.382188	0.61593	0
6	C	0.304066	0.630363	3e-06
7	O	0.278216	0.598238	5e-06
8	C	0.295182	0.659028	6e-06
9	C	0.261281	0.652111	5e-06
10	N	0.233296	0.61556	0
11	C	0.32533	0.696003	4e-06
12	O	0.318268	0.720791	7e-06
13	C	0.362761	0.70428	0.999999
14	C	0.389336	0.738011	0.999998
15	N	0.383956	0.767954	0
16	H	0.32451	0.582761	1e-06
17	H	0.254106	0.672643	8e-06
18	H	0.416248	0.742828	0.999997
19	C	0.630333	0.325748	0.999995
20	O	0.598477	0.320171	0.999991
21	C	0.659094	0.363021	0.999998
22	C	0.653471	0.390494	0
23	N	0.617812	0.38407	0
24	C	0.695934	0.369637	3e-06
25	O	0.721784	0.401762	5e-06
26	C	0.704818	0.340972	6e-06
27	C	0.738719	0.347889	5e-06
28	N	0.766704	0.38444	0
29	C	0.67467	0.303997	4e-06
30	O	0.681732	0.279209	7e-06
31	C	0.637239	0.29572	0.999999
32	C	0.610664	0.261989	0.999998
33	N	0.616044	0.232046	0
34	H	0.67549	0.417239	1e-06
35	H	0.745894	0.327357	8e-06
36	H	0.583752	0.257172	0.999997
37	C	0.40398	0.594486	0
38	C	0.402468	0.595975	0.195025
39	S	0.423432	0.575346	0.3012
40	C	0.434636	0.56432	0.08454
41	C	0.454329	0.544941	0.076418
42	N	0.464591	0.534844	0.23077
43	C	0.482825	0.516901	0.181882
44	C	0.497553	0.502407	0.30904
45	C	0.515379	0.484867	0.240215
46	C	0.518974	0.481329	0.044891
47	C	0.504244	0.495824	0.917715
48	C	0.486418	0.513365	0.986564
49	S	0.466152	0.533309	0.864071
50	N	0.537217	0.463378	0.995923
51	C	0.547458	0.4533	0.150662
52	C	0.567116	0.433956	0.136425
53	C	0.576989	0.42424	0.967557
54	C	0.59602	0.405514	0
55	C	0.600541	0.401065	0.189917
56	S	0.581497	0.419805	0.330563
57	S	0.535639	0.46493	0.362695
58	C	0.422264	0.576495	0.934874
59	H	0.390233	0.608014	0.281001
60	H	0.494866	0.505052	0.461695
61	H	0.506925	0.493187	0.765069
62	H	0.570575	0.430551	0.828018
63	H	0.613956	0.387865	0.253662
64	H	0.426133	0.572688	0.785534
65	C	0.405351	0.810842	0
66	C	0.403866	0.807866	0.195025
67	S	0.424449	0.849124	0.3012
68	C	0.435449	0.871175	0.08454
69	C	0.454784	0.909932	0.076418
70	N	0.464859	0.930128	0.23077
71	C	0.482762	0.966014	0.181882
72	C	0.497222	0.995	0.30904
73	C	0.514723	0.030081	0.240215
74	C	0.518253	0.037157	0.044891
75	C	0.503791	0.008168	0.917715
76	C	0.486289	0.973085	0.986564
77	S	0.466391	0.933199	0.864071
78	N	0.536164	0.07306	0.995923
79	C	0.546219	0.093215	0.150662
80	C	0.565519	0.131903	0.136425
81	C	0.575213	0.151335	0.967557
82	C	0.593897	0.188788	0
83	C	0.598335	0.197685	0.189917
84	S	0.579638	0.160205	0.330563
85	S	0.534615	0.069955	0.362695
86	C	0.423302	0.846826	0.934874
87	H	0.391854	0.783787	0.281001
88	H	0.494583	0.989711	0.461695
89	H	0.506422	0.013442	0.765069
90	H	0.568916	0.138712	0.828018
91	H	0.611506	0.224087	0.253662
92	H	0.427101	0.85444	0.785534
93	C	0.190108	0.594116	0
94	C	0.193105	0.595604	0.195025
95	S	0.151559	0.574975	0.3012
96	C	0.129354	0.563949	0.08454
97	C	0.090326	0.544571	0.076418
98	N	0.069989	0.534473	0.23077
99	C	0.033852	0.51653	0.181882
100	C	0.004664	0.502037	0.30904
101	C	0.969338	0.484496	0.240215
102	C	0.962212	0.480958	0.044891
103	C	0.991404	0.495453	0.917715
104	C	0.026732	0.512994	0.986564
105	S	0.066897	0.532937	0.864071
106	N	0.926058	0.463006	0.995923
107	C	0.905762	0.452929	0.150662
108	C	0.866804	0.433585	0.136425
109	C	0.847237	0.42387	0.967557
110	C	0.809522	0.405143	0
111	C	0.800563	0.400694	0.189917
112	S	0.838305	0.419434	0.330563
113	S	0.929185	0.464559	0.362695
114	C	0.153873	0.576124	0.934874
115	H	0.217353	0.607643	0.281001
116	H	0.00999	0.504682	0.461695
117	H	0.986093	0.492815	0.765069
118	H	0.859948	0.430181	0.828018
119	H	0.773977	0.387493	0.253662
120	H	0.146206	0.572317	0.785534
