data_C81H39N9O6S12_2023-05-13_07:01:12
#******************************************
#
# CIF file created by Zeo++
# Zeo++ is an open source package to
# analyze microporous materials
#
#*******************************************

_cell_length_a		48.6162   
_cell_length_b		48.9147   
_cell_length_c		7   
_cell_angle_alpha		90   
_cell_angle_beta		90   
_cell_angle_gamma		119.733   

_symmetry_space_group_name_H-M		'P1'
_symmetry_Int_Tables_number		1
_symmetry_cell_setting		Monoclinic

loop_
_symmetry_equiv_pos_as_xyz
'+x,+y,+z'

loop_
_atom_site_label
_atom_site_type_symbol
_atom_site_fract_x
_atom_site_fract_y
_atom_site_fract_z
1	C	0.365212	0.673329	0.999995
2	O	0.393162	0.678228	0.999991
3	C	0.339957	0.640591	0.999998
4	C	0.344872	0.616461	0
5	N	0.376158	0.622104	0
6	C	0.307635	0.634781	3e-06
7	O	0.284937	0.606564	5e-06
8	C	0.29986	0.659958	6e-06
9	C	0.270116	0.653882	5e-06
10	N	0.245542	0.621778	0
11	C	0.326331	0.692433	4e-06
12	O	0.320153	0.714206	7e-06
13	C	0.359174	0.699703	0.999999
14	C	0.382509	0.729331	0.999998
15	N	0.377808	0.75563	0
16	H	0.325538	0.59297	1e-06
17	H	0.263835	0.671915	8e-06
18	H	0.40612	0.733561	0.999997
19	C	0.634788	0.326671	0.999995
20	O	0.606838	0.321772	0.999991
21	C	0.660043	0.359409	0.999998
22	C	0.655128	0.383539	0
23	N	0.623842	0.377896	0
24	C	0.692365	0.365219	3e-06
25	O	0.715063	0.393436	5e-06
26	C	0.70014	0.340042	6e-06
27	C	0.729884	0.346118	5e-06
28	N	0.754458	0.378222	0
29	C	0.673669	0.307567	4e-06
30	O	0.679847	0.285794	7e-06
31	C	0.640826	0.300297	0.999999
32	C	0.617491	0.270669	0.999998
33	N	0.622192	0.24437	0
34	H	0.674462	0.40703	1e-06
35	H	0.736165	0.328085	8e-06
36	H	0.59388	0.266439	0.999997
37	C	0.395261	0.603269	0
38	C	0.395509	0.603028	0.195557
39	S	0.414645	0.584161	0.279872
40	C	0.42274	0.576175	0.053169
41	C	0.439814	0.559337	0.017072
42	C	0.447217	0.552027	0.840673
43	C	0.464226	0.535256	0.853586
44	C	0.469791	0.529779	0.03989
45	C	0.486457	0.513348	0.110236
46	C	0.490566	0.509293	0.303962
47	C	0.506589	0.493496	0.361136
48	C	0.51853	0.481728	0.223241
49	C	0.53565	0.46485	0.273366
50	C	0.542832	0.457769	0.451467
51	C	0.559859	0.440981	0.44211
52	C	0.565605	0.435315	0.256991
53	C	0.5821	0.419053	0.193511
54	C	0.587832	0.4134	0.00759
55	C	0.604739	0.396731	0
56	C	0.611775	0.389797	0.176583
57	S	0.597759	0.403617	0.353867
58	S	0.550018	0.450683	0.097835
59	N	0.514982	0.48523	0.034872
60	C	0.49933	0.500661	0.983962
61	S	0.453883	0.545476	0.195014
62	C	0.410696	0.588048	0.917073
63	H	0.385522	0.612877	0.293397
64	H	0.440866	0.558281	0.705889
65	H	0.471856	0.527724	0.728724
66	H	0.481512	0.518216	0.415199
67	H	0.509359	0.490762	0.5124
68	H	0.536323	0.464187	0.58507
69	H	0.567411	0.433536	0.567756
70	H	0.580205	0.420917	0.882567
71	H	0.624358	0.377393	0.21107
72	H	0.497616	0.502355	0.830172
73	H	0.412876	0.585895	0.764634
74	C	0.396606	0.7933	0
75	C	0.396846	0.793785	0.195557
76	S	0.415676	0.831519	0.279872
77	C	0.423647	0.847487	0.053169
78	C	0.440451	0.88116	0.017072
79	C	0.447746	0.895768	0.840673
80	C	0.464484	0.929309	0.853586
81	C	0.469951	0.940274	0.03989
82	C	0.486348	0.973136	0.110236
83	C	0.490396	0.981244	0.303962
84	C	0.506161	0.012838	0.361136
85	C	0.517907	0.03638	0.223241
86	C	0.534751	0.070137	0.273366
87	C	0.541818	0.084299	0.451467
88	C	0.558572	0.117875	0.44211
89	C	0.564227	0.129207	0.256991
90	C	0.580457	0.161732	0.193511
91	C	0.586099	0.173036	0.00759
92	C	0.602735	0.206375	0
93	C	0.609656	0.220247	0.176583
94	S	0.595863	0.192607	0.353867
95	S	0.54889	0.09847	0.097835
96	N	0.514412	0.02938	0.034872
97	C	0.499011	0.998516	0.983962
98	S	0.454284	0.908892	0.195014
99	C	0.411797	0.823738	0.917073
100	H	0.387016	0.774089	0.293397
101	H	0.441505	0.883252	0.705889
102	H	0.472001	0.944364	0.728724
103	H	0.481491	0.963393	0.415199
104	H	0.50889	0.018302	0.5124
105	H	0.535413	0.071464	0.58507
106	H	0.566003	0.132767	0.567756
107	H	0.578597	0.158	0.882567
108	H	0.622035	0.245057	0.21107
109	H	0.49732	0.995133	0.830172
110	H	0.413945	0.828041	0.764634
111	C	0.207641	0.602943	0
112	C	0.207153	0.602699	0.195557
113	S	0.169188	0.583832	0.279872
114	C	0.153122	0.57585	0.053169
115	C	0.119243	0.559015	0.017072
116	C	0.104545	0.551717	0.840673
117	C	0.070798	0.534947	0.853586
118	C	0.059766	0.529459	0.03989
119	C	0.026703	0.513027	0.110236
120	C	0.018546	0.508976	0.303962
121	C	0.986758	0.493178	0.361136
122	C	0.963071	0.481404	0.223241
123	C	0.929107	0.464525	0.273366
124	C	0.914858	0.457444	0.451467
125	C	0.881077	0.440655	0.44211
126	C	0.869676	0.43499	0.256991
127	C	0.836951	0.418727	0.193511
128	C	0.825577	0.413076	0.00759
129	C	0.792034	0.396406	0
130	C	0.778077	0.389468	0.176583
131	S	0.805886	0.403287	0.353867
132	S	0.9006	0.450359	0.097835
133	N	0.970114	0.484902	0.034872
134	C	0.001167	0.500335	0.983962
135	S	0.091341	0.545144	0.195014
136	C	0.177016	0.587725	0.917073
137	H	0.226969	0.612545	0.293397
138	H	0.117138	0.557979	0.705889
139	H	0.055651	0.527424	0.728724
140	H	0.036505	0.517903	0.415199
141	H	0.98126	0.490447	0.5124
142	H	0.927772	0.463861	0.58507
143	H	0.866094	0.433209	0.567756
144	H	0.840706	0.420595	0.882567
145	H	0.753115	0.377062	0.21107
146	H	0.004571	0.502025	0.830172
147	H	0.172687	0.585576	0.764634
