data_C57H30N6O6S6_2023-05-13_05:07:07
#******************************************
#
# CIF file created by Zeo++
# Zeo++ is an open source package to
# analyze microporous materials
#
#*******************************************

_cell_length_a		34.3791   
_cell_length_b		34.6777   
_cell_length_c		7   
_cell_angle_alpha		90   
_cell_angle_beta		90   
_cell_angle_gamma		119.624   

_symmetry_space_group_name_H-M		'P1'
_symmetry_Int_Tables_number		1
_symmetry_cell_setting		Monoclinic

loop_
_symmetry_equiv_pos_as_xyz
'+x,+y,+z'

loop_
_atom_site_label
_atom_site_type_symbol
_atom_site_fract_x
_atom_site_fract_y
_atom_site_fract_z
1	C	0.378393	0.676054	0.999995
2	O	0.417901	0.682956	0.999991
3	C	0.342781	0.629926	0.999998
4	C	0.349807	0.595926	0
5	N	0.394032	0.603877	0
6	C	0.297092	0.621739	3e-06
7	O	0.265083	0.581981	5e-06
8	C	0.286019	0.657213	6e-06
9	C	0.243976	0.648653	5e-06
10	N	0.209325	0.603418	0
11	C	0.323351	0.702972	4e-06
12	O	0.314545	0.73365	7e-06
13	C	0.369771	0.713216	0.999999
14	C	0.402677	0.754961	0.999998
15	N	0.395948	0.792018	0
16	H	0.32254	0.562827	1e-06
17	H	0.235038	0.674062	8e-06
18	H	0.436053	0.760922	0.999997
19	C	0.621607	0.323946	0.999995
20	O	0.582099	0.317044	0.999991
21	C	0.657219	0.370074	0.999998
22	C	0.650193	0.404074	0
23	N	0.605968	0.396123	0
24	C	0.702908	0.378261	3e-06
25	O	0.734917	0.418019	5e-06
26	C	0.713981	0.342787	6e-06
27	C	0.756024	0.351347	5e-06
28	N	0.790675	0.396582	0
29	C	0.676649	0.297028	4e-06
30	O	0.685455	0.26635	7e-06
31	C	0.630229	0.286784	0.999999
32	C	0.597323	0.245039	0.999998
33	N	0.604052	0.207982	0
34	H	0.67746	0.437173	1e-06
35	H	0.764962	0.325938	8e-06
36	H	0.563947	0.239078	0.999997
37	C	0.421105	0.577338	0
38	C	0.419434	0.55995	0.822763
39	S	0.448079	0.531419	0.818579
40	C	0.463172	0.542237	0.057185
41	C	0.489603	0.525698	0.144489
42	C	0.502091	0.533256	0.32897
43	C	0.529455	0.511911	0.380029
44	C	0.530993	0.490474	0.19433
45	C	0.552224	0.465037	0.151233
46	C	0.554048	0.44509	0.982035
47	C	0.578895	0.422662	0
48	C	0.595818	0.425343	0.179554
49	S	0.581504	0.455344	0.328347
50	C	0.507715	0.499232	0.063315
51	C	0.445817	0.567523	0.134242
52	H	0.402967	0.562442	0.695596
53	H	0.494341	0.551807	0.431046
54	H	0.513029	0.487228	0.492935
55	H	0.562979	0.536937	0.426479
56	H	0.538142	0.44661	0.850923
57	H	0.615787	0.411336	0.231419
58	H	0.502418	0.488614	0.916006
59	H	0.450777	0.578472	0.281538
60	C	0.422412	0.845094	0
61	C	0.439898	0.860701	0.822763
62	S	0.468353	0.917309	0.818579
63	C	0.457368	0.92148	0.057185
64	C	0.473788	0.963999	0.144489
65	C	0.466099	0.968831	0.32897
66	C	0.487341	0.017042	0.380029
67	C	0.508872	0.039835	0.19433
68	C	0.534273	0.086049	0.151233
69	C	0.554304	0.107648	0.982035
70	C	0.576655	0.154448	0
71	C	0.573832	0.168501	0.179554
72	S	0.543793	0.124588	0.328347
73	C	0.500247	0.008153	0.063315
74	C	0.432089	0.879243	0.134242
75	H	0.437518	0.841965	0.695596
76	H	0.447515	0.942767	0.431046
77	H	0.51227	0.025315	0.492935
78	H	0.46194	0.025315	0.426479
79	H	0.552896	0.090429	0.850923
80	H	0.587758	0.202124	0.231419
81	H	0.510957	0.01346	0.916006
82	H	0.421048	0.873276	0.281538
83	C	0.155788	0.57688	0
84	C	0.139973	0.578661	0.822763
85	S	0.082873	0.550584	0.818579
86	C	0.078765	0.535596	0.057185
87	C	0.035914	0.509616	0.144489
88	C	0.031115	0.497225	0.32897
89	C	0.982508	0.470359	0.380029
90	C	0.95944	0.469003	0.19433
91	C	0.912808	0.448226	0.151233
92	C	0.890953	0.446575	0.982035
93	C	0.843754	0.422203	0
94	C	0.829654	0.405469	0.179554
95	S	0.874008	0.41938	0.328347
96	C	0.991343	0.491928	0.063315
97	C	0.1214	0.552547	0.134242
98	H	0.15882	0.594906	0.695596
99	H	0.057448	0.504739	0.431046
100	H	0.974006	0.486769	0.492935
101	H	0.974386	0.43706	0.426479
102	H	0.908266	0.462273	0.850923
103	H	0.79576	0.385852	0.231419
104	H	0.98593	0.497239	0.916006
105	H	0.12748	0.547565	0.281538
