data_C57H27N9O6S6_2023-05-13_04:09:46
#******************************************
#
# CIF file created by Zeo++
# Zeo++ is an open source package to
# analyze microporous materials
#
#*******************************************

_cell_length_a		36.3515   
_cell_length_b		36.6501   
_cell_length_c		7   
_cell_angle_alpha		90   
_cell_angle_beta		90   
_cell_angle_gamma		119.644   

_symmetry_space_group_name_H-M		'P1'
_symmetry_Int_Tables_number		1
_symmetry_cell_setting		Monoclinic

loop_
_symmetry_equiv_pos_as_xyz
'+x,+y,+z'

loop_
_atom_site_label
_atom_site_type_symbol
_atom_site_fract_x
_atom_site_fract_y
_atom_site_fract_z
1	C	0.375952	0.67555	0.999995
2	O	0.413319	0.682083	0.999991
3	C	0.342255	0.631896	0.999998
4	C	0.348886	0.599719	0
5	N	0.390714	0.607244	0
6	C	0.299041	0.624148	3e-06
7	O	0.268753	0.586523	5e-06
8	C	0.288583	0.65772	6e-06
9	C	0.248818	0.649619	5e-06
10	N	0.216029	0.60681	0
11	C	0.323907	0.701026	4e-06
12	O	0.315591	0.730058	7e-06
13	C	0.367812	0.71072	0.999999
14	C	0.398949	0.750226	0.999998
15	N	0.392599	0.785295	0
16	H	0.323085	0.568395	1e-06
17	H	0.240374	0.673666	8e-06
18	H	0.430516	0.755867	0.999997
19	C	0.624048	0.32445	0.999995
20	O	0.586681	0.317917	0.999991
21	C	0.657745	0.368104	0.999998
22	C	0.651114	0.400281	0
23	N	0.609286	0.392756	0
24	C	0.700959	0.375852	3e-06
25	O	0.731247	0.413477	5e-06
26	C	0.711417	0.34228	6e-06
27	C	0.751182	0.350381	5e-06
28	N	0.783971	0.39319	0
29	C	0.676093	0.298974	4e-06
30	O	0.684409	0.269942	7e-06
31	C	0.632188	0.28928	0.999999
32	C	0.601051	0.249774	0.999998
33	N	0.607401	0.214705	0
34	H	0.676915	0.431605	1e-06
35	H	0.759626	0.326334	8e-06
36	H	0.569484	0.244133	0.999997
37	C	0.583692	0.417871	0
38	C	0.582191	0.419351	0.194963
39	C	0.560347	0.440789	0.254798
40	C	0.545893	0.454967	0.10382
41	C	0.522227	0.47819	0.109059
42	C	0.511127	0.489082	0.282675
43	C	0.488736	0.511055	0.286837
44	C	0.477444	0.522136	0.11585
45	C	0.453847	0.545292	0.1094
46	C	0.439172	0.559695	0.258524
47	C	0.417446	0.581014	0.195281
48	C	0.416308	0.582129	0
49	S	0.44052	0.558369	0.893026
50	N	0.487654	0.512118	0.945768
51	C	0.5094	0.490779	0.946129
52	S	0.55967	0.44144	0.889849
53	H	0.595788	0.406013	0.290852
54	H	0.555703	0.445352	0.403805
55	H	0.519556	0.48081	0.418355
56	H	0.480628	0.51901	0.423709
57	H	0.443611	0.55534	0.408016
58	H	0.403661	0.594542	0.28895
59	H	0.516124	0.484181	0.802988
60	C	0.58147	0.164041	0
61	C	0.579994	0.161087	0.194963
62	C	0.558613	0.118213	0.254798
63	C	0.544472	0.089852	0.10382
64	C	0.521311	0.043405	0.109059
65	C	0.510448	0.02162	0.282675
66	C	0.488534	0.977675	0.286837
67	C	0.477482	0.955513	0.11585
68	C	0.454386	0.9092	0.1094
69	C	0.440022	0.880397	0.258524
70	C	0.41876	0.837758	0.195281
71	C	0.417648	0.835526	0
72	S	0.441345	0.883046	0.893026
73	N	0.487473	0.975551	0.945768
74	C	0.508755	0.018228	0.946129
75	S	0.557963	0.116898	0.889849
76	H	0.593297	0.187769	0.290852
77	H	0.554062	0.109093	0.403805
78	H	0.518698	0.038164	0.418355
79	H	0.480599	0.961764	0.423709
80	H	0.444365	0.889107	0.408016
81	H	0.405267	0.810703	0.28895
82	H	0.515336	0.031425	0.802988
83	C	0.83418	0.417437	0
84	C	0.837158	0.418911	0.194963
85	C	0.880383	0.440347	0.254798
86	C	0.908977	0.45453	0.10382
87	C	0.955805	0.477754	0.109059
88	C	0.977768	0.488647	0.282675
89	C	0.022073	0.510619	0.286837
90	C	0.044417	0.5217	0.11585
91	C	0.09111	0.544857	0.1094
92	C	0.120148	0.559258	0.258524
93	C	0.163137	0.580578	0.195281
94	C	0.165387	0.581695	0
95	S	0.117478	0.557935	0.893026
96	N	0.024215	0.511681	0.945768
97	C	0.981188	0.490342	0.946129
98	S	0.881709	0.44101	0.889849
99	H	0.810258	0.405568	0.290852
100	H	0.889578	0.444904	0.403805
101	H	0.961088	0.480375	0.418355
102	H	0.038115	0.518576	0.423709
103	H	0.111367	0.554902	0.408016
104	H	0.190414	0.594104	0.28895
105	H	0.967883	0.483743	0.802988
