data_C72H36N6O6S6_2023-05-12_14:03:45
#******************************************
#
# CIF file created by Zeo++
# Zeo++ is an open source package to
# analyze microporous materials
#
#*******************************************

_cell_length_a		36.4293   
_cell_length_b		36.7279   
_cell_length_c		7   
_cell_angle_alpha		90   
_cell_angle_beta		90   
_cell_angle_gamma		119.645   

_symmetry_space_group_name_H-M		'P1'
_symmetry_Int_Tables_number		1
_symmetry_cell_setting		Monoclinic

loop_
_symmetry_equiv_pos_as_xyz
'+x,+y,+z'

loop_
_atom_site_label
_atom_site_type_symbol
_atom_site_fract_x
_atom_site_fract_y
_atom_site_fract_z
1	C	0.375861	0.675531	0.999995
2	O	0.413148	0.68205	0.999991
3	C	0.342235	0.63197	0.999998
4	C	0.348852	0.599861	0
5	N	0.39059	0.607369	0
6	C	0.299113	0.624238	3e-06
7	O	0.26889	0.586692	5e-06
8	C	0.288678	0.657739	6e-06
9	C	0.248998	0.649655	5e-06
10	N	0.216279	0.606936	0
11	C	0.323927	0.700953	4e-06
12	O	0.31563	0.729924	7e-06
13	C	0.367739	0.710627	0.999999
14	C	0.39881	0.75005	0.999998
15	N	0.392474	0.785045	0
16	H	0.323105	0.568603	1e-06
17	H	0.240573	0.673651	8e-06
18	H	0.43031	0.755679	0.999997
19	C	0.624139	0.324469	0.999995
20	O	0.586852	0.31795	0.999991
21	C	0.657765	0.36803	0.999998
22	C	0.651148	0.400139	0
23	N	0.60941	0.392631	0
24	C	0.700887	0.375762	3e-06
25	O	0.73111	0.413308	5e-06
26	C	0.711322	0.342261	6e-06
27	C	0.751002	0.350345	5e-06
28	N	0.783721	0.393064	0
29	C	0.676073	0.299047	4e-06
30	O	0.68437	0.270076	7e-06
31	C	0.632261	0.289373	0.999999
32	C	0.60119	0.24995	0.999998
33	N	0.607526	0.214955	0
34	H	0.676895	0.431397	1e-06
35	H	0.759427	0.326349	8e-06
36	H	0.56969	0.244321	0.999997
37	C	0.583871	0.417693	0
38	C	0.623899	0.451085	0.02064
39	S	0.624635	0.49762	0.986369
40	C	0.571228	0.472622	0.944904
41	C	0.550656	0.497422	0.902987
42	C	0.552027	0.51055	0.713608
43	C	0.532751	0.533616	0.663439
44	C	0.511758	0.543625	0.802125
45	C	0.509326	0.530975	0.994905
46	C	0.487912	0.540971	0.13811
47	C	0.465982	0.564419	0.094747
48	C	0.425842	0.549654	0.021646
49	C	0.416129	0.582307	0
50	C	0.448247	0.620732	0.05624
51	S	0.490872	0.617362	0.136713
52	C	0.486498	0.5278	0.327442
53	C	0.506069	0.505027	0.377926
54	C	0.527099	0.495056	0.23928
55	C	0.529281	0.507457	0.046232
56	C	0.553306	0.429588	0.956135
57	H	0.652728	0.450769	0.053719
58	H	0.568295	0.502776	0.60444
59	H	0.534028	0.54389	0.516775
60	H	0.497195	0.561923	0.757107
61	H	0.40495	0.517054	0.985972
62	H	0.449061	0.650558	0.054755
63	H	0.470057	0.535401	0.436426
64	H	0.505067	0.495027	0.524883
65	H	0.542202	0.477295	0.284873
66	H	0.519947	0.408184	0.934003
67	C	0.581649	0.164398	0
68	C	0.547817	0.170805	0.02064
69	S	0.501062	0.12533	0.986369
70	C	0.526556	0.097365	0.944904
71	C	0.501789	0.05241	0.902987
72	C	0.48859	0.040729	0.713608
73	C	0.465554	0.998776	0.663439
74	C	0.45565	0.968092	0.802125
75	C	0.468376	0.978247	0.994905
76	C	0.458485	0.947158	0.13811
77	C	0.435086	0.902203	0.094747
78	C	0.450205	0.877189	0.021646
79	C	0.41747	0.835169	0
80	C	0.378638	0.828762	0.05624
81	S	0.38172	0.874237	0.136713
82	C	0.471728	0.958838	0.327442
83	C	0.494466	0.000791	0.377926
84	C	0.504333	0.031476	0.23928
85	C	0.49186	0.02132	0.046232
86	C	0.569917	0.122379	0.956135
87	H	0.547929	0.199612	0.053719
88	H	0.496284	0.064527	0.60444
89	H	0.455224	0.989838	0.516775
90	H	0.437371	0.935531	0.757107
91	H	0.483105	0.888908	0.985972
92	H	0.34867	0.799954	0.054755
93	H	0.464208	0.93504	0.436426
94	H	0.504519	0.009729	0.524883
95	H	0.522068	0.064037	0.284873
96	H	0.591657	0.11066	0.934003
97	C	0.833824	0.41726	0
98	C	0.827628	0.37746	0.02064
99	S	0.873647	0.376401	0.986369
100	C	0.90156	0.429363	0.944904
101	C	0.946899	0.449519	0.902987
102	C	0.958728	0.448071	0.713608
103	C	0.001039	0.466958	0.663439
104	C	0.031936	0.487634	0.802125
105	C	0.021643	0.490129	0.994905
106	C	0.052947	0.511222	0.13811
107	C	0.098276	0.532729	0.094747
108	C	0.123297	0.572507	0.021646
109	C	0.165745	0.581874	0
110	C	0.172459	0.549856	0.05624
111	S	0.126751	0.507751	0.136713
112	C	0.041118	0.512713	0.327442
113	C	0.998809	0.493533	0.377926
114	C	0.967912	0.472818	0.23928
115	C	0.978203	0.470574	0.046232
116	C	0.876121	0.447384	0.956135
117	H	0.798687	0.348969	0.053719
118	H	0.934765	0.432048	0.60444
119	H	0.010092	0.465623	0.516775
120	H	0.064778	0.501897	0.757107
121	H	0.11129	0.593388	0.985972
122	H	0.201613	0.548839	0.054755
123	H	0.065079	0.528909	0.436426
124	H	0.989757	0.494594	0.524883
125	H	0.935074	0.458019	0.284873
126	H	0.887739	0.480506	0.934003
