data_C60H30N6O6S6_2023-05-30_09:54:15
#******************************************
#
# CIF file created by Zeo++
# Zeo++ is an open source package to
# analyze microporous materials
#
#*******************************************

_cell_length_a		36.6562   
_cell_length_b		36.9548   
_cell_length_c		7   
_cell_angle_alpha		90   
_cell_angle_beta		90   
_cell_angle_gamma		119.647   

_symmetry_space_group_name_H-M		'P1'
_symmetry_Int_Tables_number		1
_symmetry_cell_setting		Monoclinic

loop_
_symmetry_equiv_pos_as_xyz
'+x,+y,+z'

loop_
_atom_site_label
_atom_site_type_symbol
_atom_site_fract_x
_atom_site_fract_y
_atom_site_fract_z
1	C	0.375598	0.675477	0.999995
2	O	0.412655	0.681956	0.999991
3	C	0.342178	0.632182	0.999998
4	C	0.348753	0.60027	0
5	N	0.390233	0.607732	0
6	C	0.299323	0.624497	3e-06
7	O	0.269285	0.587181	5e-06
8	C	0.288954	0.657794	6e-06
9	C	0.249519	0.649759	5e-06
10	N	0.217001	0.607302	0
11	C	0.323987	0.700743	4e-06
12	O	0.315742	0.729537	7e-06
13	C	0.367528	0.710358	0.999999
14	C	0.398409	0.74954	0.999998
15	N	0.392113	0.784321	0
16	H	0.323164	0.569203	1e-06
17	H	0.241147	0.673608	8e-06
18	H	0.429714	0.755134	0.999997
19	C	0.624402	0.324523	0.999995
20	O	0.587345	0.318044	0.999991
21	C	0.657822	0.367818	0.999998
22	C	0.651247	0.39973	0
23	N	0.609767	0.392268	0
24	C	0.700677	0.375503	3e-06
25	O	0.730715	0.412819	5e-06
26	C	0.711046	0.342206	6e-06
27	C	0.750481	0.350241	5e-06
28	N	0.782999	0.392698	0
29	C	0.676013	0.299257	4e-06
30	O	0.684258	0.270463	7e-06
31	C	0.632472	0.289642	0.999999
32	C	0.601591	0.25046	0.999998
33	N	0.607887	0.215679	0
34	H	0.676836	0.430797	1e-06
35	H	0.758853	0.326392	8e-06
36	H	0.570286	0.244866	0.999997
37	C	0.584387	0.417177	0
38	C	0.58186	0.419649	0.194068
39	C	0.559902	0.441197	0.244426
40	C	0.546369	0.454486	0.087547
41	C	0.522831	0.477588	0.082951
42	C	0.511146	0.48906	0.253319
43	C	0.488853	0.510939	0.253319
44	C	0.477165	0.522408	0.082951
45	C	0.453627	0.54551	0.087547
46	C	0.440086	0.558791	0.244425
47	C	0.418131	0.580342	0.194068
48	C	0.415613	0.582823	0
49	S	0.438817	0.560056	0.879715
50	C	0.488846	0.510941	0.912602
51	C	0.511148	0.489052	0.912602
52	S	0.56119	0.43995	0.879715
53	H	0.594805	0.406939	0.29571
54	H	0.554508	0.446483	0.391251
55	H	0.519048	0.481305	0.391284
56	H	0.480952	0.518695	0.391284
57	H	0.445472	0.553497	0.391251
58	H	0.405181	0.593047	0.29571
59	H	0.481021	0.518619	0.774154
60	H	0.51897	0.481373	0.774154
61	C	0.582168	0.165432	0
62	C	0.579703	0.160479	0.194068
63	C	0.558211	0.11738	0.244426
64	C	0.544957	0.090809	0.087547
65	C	0.521915	0.044605	0.082951
66	C	0.510474	0.021665	0.253319
67	C	0.488652	0.977906	0.253319
68	C	0.477213	0.954965	0.082951
69	C	0.454172	0.908761	0.087547
70	C	0.440926	0.88219	0.244425
71	C	0.419432	0.839091	0.194068
72	C	0.416957	0.834138	0
73	S	0.439664	0.87968	0.879715
74	C	0.48865	0.977897	0.912602
75	C	0.510481	0.021674	0.912602
76	S	0.559454	0.119891	0.879715
77	H	0.592379	0.185894	0.29571
78	H	0.552939	0.1068	0.391251
79	H	0.518209	0.037176	0.391284
80	H	0.480916	0.962394	0.391284
81	H	0.446206	0.89277	0.391251
82	H	0.40676	0.813676	0.29571
83	H	0.480993	0.962539	0.774154
84	H	0.518141	0.037031	0.774154
85	C	0.832793	0.416746	0
86	C	0.837786	0.419227	0.194068
87	C	0.881235	0.440778	0.244426
88	C	0.908022	0.45406	0.087547
89	C	0.954601	0.477161	0.082951
90	C	0.977728	0.48863	0.253319
91	C	0.021843	0.51051	0.253319
92	C	0.044969	0.521981	0.082951
93	C	0.091549	0.545084	0.087547
94	C	0.118336	0.558373	0.244425
95	C	0.161785	0.579921	0.194068
96	C	0.166778	0.582393	0
97	S	0.120867	0.559619	0.879715
98	C	0.021852	0.510517	0.912602
99	C	0.977719	0.488629	0.912602
100	S	0.878704	0.439514	0.879715
101	H	0.812164	0.406522	0.29571
102	H	0.891901	0.446072	0.391251
103	H	0.962091	0.480874	0.391284
104	H	0.03748	0.518265	0.391284
105	H	0.10767	0.553087	0.391251
106	H	0.187407	0.592631	0.29571
107	H	0.037334	0.518197	0.774154
108	H	0.962237	0.480951	0.774154
