data_C72H36N6O12_2023-05-11_00:52:29
#******************************************
#
# CIF file created by Zeo++
# Zeo++ is an open source package to
# analyze microporous materials
#
#*******************************************

_cell_length_a		35.1433   
_cell_length_b		35.4419   
_cell_length_c		7   
_cell_angle_alpha		90   
_cell_angle_beta		90   
_cell_angle_gamma		119.632   

_symmetry_space_group_name_H-M		'P1'
_symmetry_Int_Tables_number		1
_symmetry_cell_setting		Monoclinic

loop_
_symmetry_equiv_pos_as_xyz
'+x,+y,+z'

loop_
_atom_site_label
_atom_site_type_symbol
_atom_site_fract_x
_atom_site_fract_y
_atom_site_fract_z
1	C	0.377415	0.675852	0.999995
2	O	0.416065	0.682606	0.999991
3	C	0.34257	0.630715	0.999998
4	C	0.349437	0.597446	0
5	N	0.392702	0.605226	0
6	C	0.297872	0.622704	3e-06
7	O	0.266553	0.583801	5e-06
8	C	0.287046	0.657416	6e-06
9	C	0.245916	0.64904	5e-06
10	N	0.212012	0.604777	0
11	C	0.323574	0.702193	4e-06
12	O	0.314965	0.732211	7e-06
13	C	0.368987	0.712216	0.999999
14	C	0.401184	0.753064	0.999998
15	N	0.394606	0.789325	0
16	H	0.322758	0.565058	1e-06
17	H	0.237176	0.673903	8e-06
18	H	0.433835	0.758897	0.999997
19	C	0.622585	0.324148	0.999995
20	O	0.583935	0.317394	0.999991
21	C	0.65743	0.369285	0.999998
22	C	0.650563	0.402554	0
23	N	0.607298	0.394774	0
24	C	0.702128	0.377296	3e-06
25	O	0.733447	0.416199	5e-06
26	C	0.712954	0.342584	6e-06
27	C	0.754084	0.35096	5e-06
28	N	0.787988	0.395223	0
29	C	0.676426	0.297807	4e-06
30	O	0.685035	0.267789	7e-06
31	C	0.631013	0.287784	0.999999
32	C	0.598816	0.246936	0.999998
33	N	0.605394	0.210675	0
34	H	0.677242	0.434942	1e-06
35	H	0.762824	0.326097	8e-06
36	H	0.566165	0.241103	0.999997
37	O	0.503833	0.496241	0.805686
38	C	0.502516	0.497971	0.631477
39	C	0.522644	0.478331	0.511593
40	C	0.521208	0.480228	0.320614
41	C	0.541918	0.459643	0.210973
42	C	0.58757	0.480224	0.1928
43	C	0.607008	0.460751	0.087527
44	C	0.580818	0.420743	0
45	C	0.535385	0.400017	0.016555
46	C	0.515938	0.419484	0.121807
47	C	0.499917	0.501332	0.226659
48	C	0.480598	0.520753	0.318309
49	C	0.459558	0.541072	0.208641
50	C	0.482569	0.571765	0.065385
51	C	0.462449	0.590751	0.9612
52	C	0.419182	0.579257	0
53	C	0.39591	0.549073	0.142159
54	C	0.416075	0.530099	0.246097
55	C	0.48023	0.520178	0.531927
56	O	0.462953	0.536617	0.626703
57	H	0.537989	0.462708	0.587607
58	H	0.608326	0.511528	0.259992
59	H	0.64245	0.477005	0.074642
60	H	0.514886	0.368813	0.948403
61	H	0.480441	0.403002	0.133947
62	H	0.500043	0.500532	0.070976
63	H	0.516547	0.581555	0.03425
64	H	0.480832	0.614508	0.851185
65	H	0.362236	0.540203	0.174175
66	H	0.39743	0.506841	0.35776
67	O	0.503292	0.007294	0.805686
68	C	0.501563	0.004275	0.631477
69	C	0.521149	0.043656	0.511593
70	C	0.519254	0.040354	0.320614
71	C	0.539784	0.081247	0.210973
72	C	0.518767	0.105919	0.1928
73	C	0.53819	0.144451	0.087527
74	C	0.578584	0.158291	0
75	C	0.599744	0.133978	0.016555
76	C	0.580328	0.095442	0.121807
77	C	0.498205	0.998372	0.226659
78	C	0.478834	0.960008	0.318309
79	C	0.458573	0.919054	0.208641
80	C	0.427563	0.911321	0.065385
81	C	0.408636	0.872599	0.9612
82	C	0.420504	0.841261	0
83	C	0.451005	0.848232	0.142159
84	C	0.469921	0.886988	0.246097
85	C	0.479415	0.960215	0.531927
86	O	0.463025	0.926829	0.626703
87	H	0.536734	0.074323	0.587607
88	H	0.487159	0.095351	0.259992
89	H	0.521596	0.163332	0.074642
90	H	0.63125	0.1447	0.948403
91	H	0.597151	0.076735	0.133947
92	H	0.499008	0.99929	0.070976
93	H	0.417475	0.935171	0.03425
94	H	0.384629	0.867177	0.851185
95	H	0.460166	0.823769	0.174175
96	H	0.493428	0.891654	0.35776
97	O	0.992195	0.495792	0.805686
98	C	0.995241	0.497081	0.631477
99	C	0.955527	0.47734	0.511593
100	C	0.958859	0.478746	0.320614
101	C	0.917618	0.458437	0.210973
102	C	0.892983	0.413185	0.1928
103	C	0.854122	0.394124	0.087527
104	C	0.839918	0.420294	0
105	C	0.864191	0.465332	0.016555
106	C	0.903055	0.484401	0.121807
107	C	0.001197	0.499623	0.226659
108	C	0.039888	0.518566	0.318309
109	C	0.081188	0.539201	0.208641
110	C	0.089188	0.516241	0.065385
111	C	0.128235	0.535978	0.9612
112	C	0.159635	0.578809	0
113	C	0.152406	0.602023	0.142159
114	C	0.113324	0.582241	0.246097
115	C	0.039675	0.518934	0.531927
116	O	0.073343	0.535881	0.626703
117	H	0.924597	0.462296	0.587607
118	H	0.903835	0.392448	0.259992
119	H	0.835274	0.35899	0.074642
120	H	0.853184	0.485814	0.948403
121	H	0.921728	0.519591	0.133947
122	H	0.000268	0.499505	0.070976
123	H	0.065298	0.482602	0.03425
124	H	0.13386	0.517642	0.851185
125	H	0.176918	0.635355	0.174175
126	H	0.108462	0.600833	0.35776
