data_BrC1=CC=C(C2=CC=C(C3=C4C=CC5=C(C6=CC=C(C7=CC=C(Br)S7)S6)C=CN=C5C4=NC=C3)S2)S1_framework

_audit_creation_method RASPA-1.0
_audit_creation_date 2023-5-13
_audit_author_name ''

_cell_length_a    127.131
_cell_length_b    128.026
_cell_length_c    21
_cell_angle_alpha 90
_cell_angle_beta  90
_cell_angle_gamma 119.694
_cell_volume      296915

_symmetry_cell_setting          triclinic
_symmetry_space_group_name_Hall 'P 1'
_symmetry_space_group_name_H-M  'P 1'
_symmetry_Int_Tables_number     1

_symmetry_equiv_pos_as_xyz 'x,y,z'

loop_
_atom_site_label
_atom_site_type_symbol
_atom_site_fract_x
_atom_site_fract_y
_atom_site_fract_z
_atom_site_charge
1        C      0.123300000000     0.224766666667     0.333331666667     0          
2        O      0.133986666667     0.226637666667     0.333330333333     0          
3        C      0.113652000000     0.212263666667     0.333332666667     0          
4        C      0.115538666667     0.203047666667     0.000000000000     0          
5        N      0.127501000000     0.205202666667     0.000000000000     0          
6        C      0.101293333333     0.210044333333     0.000001000000     0          
7        O      0.092622000000     0.199268000000     0.000001666667     0          
8        C      0.098312666667     0.219660000000     0.000002000000     0          
9        C      0.086940000000     0.217339333333     0.000001666667     0          
10       N      0.077552333333     0.205078333333     0.000000000000     0          
11       C      0.108425666667     0.232063000000     0.000001333333     0          
12       O      0.106056333333     0.240378333333     0.000002333333     0          
13       C      0.120982666667     0.234839666667     0.333333000000     0          
14       C      0.129897333333     0.246154666667     0.333332666667     0          
15       N      0.128092000000     0.256199000000     0.000000000000     0          
16       H      0.108152333333     0.194076000000     0.000000333333     0          
17       H      0.084532666667     0.224226666667     0.000002666667     0          
18       H      0.138925333333     0.247770333333     0.333332333333     0          
19       C      0.210033333333     0.108566666667     0.333331666667     0          
20       O      0.199346666667     0.106695666667     0.333330333333     0          
21       C      0.219681333333     0.121069666667     0.333332666667     0          
22       C      0.217794666667     0.130285666667     0.000000000000     0          
23       N      0.205832333333     0.128130666667     0.000000000000     0          
24       C      0.232040000000     0.123289000000     0.000001000000     0          
25       O      0.240711333333     0.134065333333     0.000001666667     0          
26       C      0.235020666667     0.113673333333     0.000002000000     0          
27       C      0.246393333333     0.115994000000     0.000001666667     0          
28       N      0.255781000000     0.128255000000     0.000000000000     0          
29       C      0.224907666667     0.101270333333     0.000001333333     0          
30       O      0.227277000000     0.092955000000     0.000002333333     0          
31       C      0.212350666667     0.098493666667     0.333333000000     0          
32       C      0.203436000000     0.087178666667     0.333332666667     0          
33       N      0.205241333333     0.077134333333     0.000000000000     0          
34       H      0.225181000000     0.139257333333     0.000000333333     0          
35       H      0.248800666667     0.109106666667     0.000002666667     0          
36       H      0.194408000000     0.085563000000     0.333332333333     0          
37       C      0.134812000000     0.198009333333     0.000000000000     0          
38       C      0.123100000000     0.193581666667     0.020088666667     0          
39       C      0.120858666667     0.186781333333     0.077360666667     0          
40       C      0.130984666667     0.186429666667     0.098916000000     0          
41       C      0.131722000000     0.180259666667     0.154863666667     0          
42       C      0.122597000000     0.169573666667     0.179535333333     0          
43       C      0.126214333333     0.165868333333     0.235491666667     0          
44       C      0.137995666667     0.173892333333     0.252451666667     0          
45       C      0.144991666667     0.173325666667     0.306539000000     0          
46       C      0.151906000000     0.167387333333     0.302805333333     0          
47       C      0.152724333333     0.161775333333     0.246967000000     0          
48       C      0.159661333333     0.156151333333     0.245298333333     0          
49       C      0.166026333333     0.155890333333     0.299456000000     0          
50       C      0.173275666667     0.150287000000     0.299807000000     0          
51       C      0.174559000000     0.144182333333     0.243765333333     0          
52       C      0.167090000000     0.132559000000     0.223356000000     0          
53       C      0.171503666667     0.129882666667     0.166767000000     0          
54       C      0.182147333333     0.139551333333     0.144899666667     0          
55       C      0.189096333333     0.140086666667     0.089265000000     0          
56       C      0.196704666667     0.150111666667     0.053254333333     0          
57       C      0.202137666667     0.147335000000     0.001254666667     0          
58       C      0.198521333333     0.135324000000     0.000000000000     0          
59       S      0.188795666667     0.127439000000     0.059195333333     0          
60       S      0.186694666667     0.151746333333     0.194279000000     0          
61       C      0.179390000000     0.150365333333     0.021720333333     0          
62       C      0.178138333333     0.155959333333     0.074608333333     0          
63       N      0.171330666667     0.161323000000     0.075731666667     0          
64       C      0.165272333333     0.161464333333     0.022833000000     0          
65       C      0.158238333333     0.167188666667     0.024500333333     0          
66       N      0.157556666667     0.172511666667     0.079022333333     0          
67       C      0.150941000000     0.178075666667     0.081082000000     0          
68       C      0.144546666667     0.178720666667     0.029990666667     0          
69       S      0.144497666667     0.185827000000     0.201276000000     0          
70       S      0.143063000000     0.194264000000     0.048376333333     0          
71       H      0.116439000000     0.195044000000     0.328933666667     0          
72       H      0.112209666667     0.182472000000     0.101809000000     0          
73       H      0.113713666667     0.164483333333     0.158089333333     0          
74       H      0.120455333333     0.157717666667     0.261883666667     0          
75       H      0.148012666667     0.161765333333     0.203674666667     0          
76       H      0.160073666667     0.152029333333     0.200733333333     0          
77       H      0.158875333333     0.126242666667     0.247832000000     0          
78       H      0.166968666667     0.121200666667     0.143219000000     0          
79       H      0.198281000000     0.159088666667     0.063154000000     0          
80       H      0.208323000000     0.153865333333     0.300602000000     0          
81       H      0.184995000000     0.146172666667     0.023495666667     0          
82       H      0.182687666667     0.156333666667     0.119031333333     0          
83       H      0.150969000000     0.182112000000     0.126611666667     0          
84       H      0.139357000000     0.183324333333     0.034314333333     0          
85       C      0.135269000000     0.270585666667     0.000000000000     0          
86       C      0.139786333333     0.263392000000     0.020088666667     0          
87       C      0.146627333333     0.267931333333     0.077360666667     0          
88       C      0.146918333333     0.278305333333     0.098916000000     0          
89       C      0.153108333333     0.285167666667     0.154863666667     0          
90       C      0.163892666667     0.286754333333     0.179535333333     0          
91       C      0.167590666667     0.294018000000     0.235491666667     0          
92       C      0.159462333333     0.297706666667     0.252451666667     0          
93       C      0.159988333333     0.305195666667     0.306539000000     0          
94       C      0.165907666667     0.317942333333     0.302805333333     0          
95       C      0.171537000000     0.324330000000     0.246967000000     0          
96       C      0.177140666667     0.003453666667     0.245298333333     0          
97       C      0.177363333333     0.010014000000     0.299456000000     0          
98       C      0.182944666667     0.022760000000     0.299807000000     0          
99       C      0.189065666667     0.030097666667     0.243765333333     0          
100      C      0.200781000000     0.034255666667     0.223356000000     0          
101      C      0.203441000000     0.041284666667     0.166767000000     0          
102      C      0.193668333333     0.042212000000     0.144899666667     0          
103      C      0.193088333333     0.048559666667     0.089265000000     0          
104      C      0.182977000000     0.046128000000     0.053254333333     0          
105      C      0.185731000000     0.054266000000     0.001254666667     0          
106      C      0.197812333333     0.062623666667     0.000000000000     0          
107      S      0.205788000000     0.060832000000     0.059195333333     0          
108      S      0.181397000000     0.034594000000     0.194279000000     0          
109      C      0.182828666667     0.028735000000     0.021720333333     0          
110      C      0.177220000000     0.021936333333     0.074608333333     0          
111      N      0.171876666667     0.009866000000     0.075731666667     0          
112      C      0.171772000000     0.003728000000     0.022833000000     0          
113      C      0.166068333333     0.324408666667     0.024500333333     0          
114      N      0.160728333333     0.318443666667     0.079022333333     0          
115      C      0.155183000000     0.306364666667     0.081082000000     0          
116      C      0.154574333333     0.299393000000     0.029990666667     0          
117      S      0.147440333333     0.292282000000     0.201276000000     0          
118      S      0.138978666667     0.282476333333     0.048376333333     0          
119      H      0.138359000000     0.255344000000     0.328933666667     0          
120      H      0.151007000000     0.263652333333     0.101809000000     0          
121      H      0.169057666667     0.283019333333     0.158089333333     0          
122      H      0.175809000000     0.296417333333     0.261883666667     0          
123      H      0.171575666667     0.319675666667     0.203674666667     0          
124      H      0.181276333333     0.007958333333     0.200733333333     0          
125      H      0.207173000000     0.032400666667     0.247832000000     0          
126      H      0.212185000000     0.045424000000     0.143219000000     0          
127      H      0.173954333333     0.038766333333     0.063154000000     0          
128      H      0.179137000000     0.053899333333     0.300602000000     0          
129      H      0.187003333333     0.038450333333     0.023495666667     0          
130      H      0.176816333333     0.026068000000     0.119031333333     0          
131      H      0.151130333333     0.302380333333     0.126611666667     0          
132      H      0.149984333333     0.289680000000     0.034314333333     0          
133      C      0.063064333333     0.197885000000     0.000000000000     0          
134      C      0.070259000000     0.209507000000     0.020088666667     0          
135      C      0.065659333333     0.211767333333     0.077360666667     0          
136      C      0.055242333333     0.201745333333     0.098916000000     0          
137      C      0.048315000000     0.201053000000     0.154863666667     0          
138      C      0.046655666667     0.210152000000     0.179535333333     0          
139      C      0.039340666667     0.206594000000     0.235491666667     0          
140      C      0.035687000000     0.194881333333     0.252451666667     0          
141      C      0.028165333333     0.187959000000     0.306539000000     0          
142      C      0.015331666667     0.181150666667     0.302805333333     0          
143      C      0.008884333333     0.180375000000     0.246967000000     0          
144      C      0.329676666667     0.173542000000     0.245298333333     0          
145      C      0.323088666667     0.167242333333     0.299456000000     0          
146      C      0.310258000000     0.160100000000     0.299807000000     0          
147      C      0.302853666667     0.158867333333     0.243765333333     0          
148      C      0.298607333333     0.166332666667     0.223356000000     0          
149      C      0.291534000000     0.161979666667     0.166767000000     0          
150      C      0.290663000000     0.151383333333     0.144899666667     0          
151      C      0.284293666667     0.144500666667     0.089265000000     0          
152      C      0.286797000000     0.136907333333     0.053254333333     0          
153      C      0.278610000000     0.131546000000     0.001254666667     0          
154      C      0.270145000000     0.135199666667     0.000000000000     0          
155      S      0.271895000000     0.144876333333     0.059195333333     0          
156      S      0.298386666667     0.146806666667     0.194279000000     0          
157      C      0.304260000000     0.154046666667     0.021720333333     0          
158      C      0.311120000000     0.155251333333     0.074608333333     0          
159      N      0.323271333333     0.161958000000     0.075731666667     0          
160      C      0.329434000000     0.167954666667     0.022833000000     0          
161      C      0.008838666667     0.174883000000     0.024500333333     0          
162      N      0.014860000000     0.175525000000     0.079022333333     0          
163      C      0.027021333333     0.182040333333     0.081082000000     0          
164      C      0.034024000000     0.188366333333     0.029990666667     0          
165      S      0.041207333333     0.188371333333     0.201276000000     0          
166      S      0.051103666667     0.189740000000     0.048376333333     0          
167      H      0.078347333333     0.216092000000     0.328933666667     0          
168      H      0.069928666667     0.220356000000     0.101809000000     0          
169      H      0.050374000000     0.218977666667     0.158089333333     0          
170      H      0.036881000000     0.212345333333     0.261883666667     0          
171      H      0.013556666667     0.185039333333     0.203674666667     0          
172      H      0.325128666667     0.173159000000     0.200733333333     0          
173      H      0.300430333333     0.174503666667     0.247832000000     0          
174      H      0.287324666667     0.166522333333     0.143219000000     0          
175      H      0.294243333333     0.135291666667     0.063154000000     0          
176      H      0.279018666667     0.125382333333     0.300602000000     0          
177      H      0.294480333333     0.148523666667     0.023495666667     0          
178      H      0.306974333333     0.150745333333     0.119031333333     0          
179      H      0.031046333333     0.181988000000     0.126611666667     0          
180      H      0.043804000000     0.193476000000     0.034314333333     0          
1        C      0.123300000000     0.224766666667     0.666665000000     0          
2        O      0.133986666667     0.226637666667     0.666663666667     0          
3        C      0.113652000000     0.212263666667     0.666666000000     0          
4        C      0.115538666667     0.203047666667     0.333333333333     0          
5        N      0.127501000000     0.205202666667     0.333333333333     0          
6        C      0.101293333333     0.210044333333     0.333334333333     0          
7        O      0.092622000000     0.199268000000     0.333335000000     0          
8        C      0.098312666667     0.219660000000     0.333335333333     0          
9        C      0.086940000000     0.217339333333     0.333335000000     0          
10       N      0.077552333333     0.205078333333     0.333333333333     0          
11       C      0.108425666667     0.232063000000     0.333334666667     0          
12       O      0.106056333333     0.240378333333     0.333335666667     0          
13       C      0.120982666667     0.234839666667     0.666666333333     0          
14       C      0.129897333333     0.246154666667     0.666666000000     0          
15       N      0.128092000000     0.256199000000     0.333333333333     0          
16       H      0.108152333333     0.194076000000     0.333333666667     0          
17       H      0.084532666667     0.224226666667     0.333336000000     0          
18       H      0.138925333333     0.247770333333     0.666665666667     0          
19       C      0.210033333333     0.108566666667     0.666665000000     0          
20       O      0.199346666667     0.106695666667     0.666663666667     0          
21       C      0.219681333333     0.121069666667     0.666666000000     0          
22       C      0.217794666667     0.130285666667     0.333333333333     0          
23       N      0.205832333333     0.128130666667     0.333333333333     0          
24       C      0.232040000000     0.123289000000     0.333334333333     0          
25       O      0.240711333333     0.134065333333     0.333335000000     0          
26       C      0.235020666667     0.113673333333     0.333335333333     0          
27       C      0.246393333333     0.115994000000     0.333335000000     0          
28       N      0.255781000000     0.128255000000     0.333333333333     0          
29       C      0.224907666667     0.101270333333     0.333334666667     0          
30       O      0.227277000000     0.092955000000     0.333335666667     0          
31       C      0.212350666667     0.098493666667     0.666666333333     0          
32       C      0.203436000000     0.087178666667     0.666666000000     0          
33       N      0.205241333333     0.077134333333     0.333333333333     0          
34       H      0.225181000000     0.139257333333     0.333333666667     0          
35       H      0.248800666667     0.109106666667     0.333336000000     0          
36       H      0.194408000000     0.085563000000     0.666665666667     0          
37       C      0.134812000000     0.198009333333     0.333333333333     0          
38       C      0.123100000000     0.193581666667     0.353422000000     0          
39       C      0.120858666667     0.186781333333     0.410694000000     0          
40       C      0.130984666667     0.186429666667     0.432249333333     0          
41       C      0.131722000000     0.180259666667     0.488197000000     0          
42       C      0.122597000000     0.169573666667     0.512868666667     0          
43       C      0.126214333333     0.165868333333     0.568825000000     0          
44       C      0.137995666667     0.173892333333     0.585785000000     0          
45       C      0.144991666667     0.173325666667     0.639872333333     0          
46       C      0.151906000000     0.167387333333     0.636138666667     0          
47       C      0.152724333333     0.161775333333     0.580300333333     0          
48       C      0.159661333333     0.156151333333     0.578631666667     0          
49       C      0.166026333333     0.155890333333     0.632789333333     0          
50       C      0.173275666667     0.150287000000     0.633140333333     0          
51       C      0.174559000000     0.144182333333     0.577098666667     0          
52       C      0.167090000000     0.132559000000     0.556689333333     0          
53       C      0.171503666667     0.129882666667     0.500100333333     0          
54       C      0.182147333333     0.139551333333     0.478233000000     0          
55       C      0.189096333333     0.140086666667     0.422598333333     0          
56       C      0.196704666667     0.150111666667     0.386587666667     0          
57       C      0.202137666667     0.147335000000     0.334588000000     0          
58       C      0.198521333333     0.135324000000     0.333333333333     0          
59       S      0.188795666667     0.127439000000     0.392528666667     0          
60       S      0.186694666667     0.151746333333     0.527612333333     0          
61       C      0.179390000000     0.150365333333     0.355053666667     0          
62       C      0.178138333333     0.155959333333     0.407941666667     0          
63       N      0.171330666667     0.161323000000     0.409065000000     0          
64       C      0.165272333333     0.161464333333     0.356166333333     0          
65       C      0.158238333333     0.167188666667     0.357833666667     0          
66       N      0.157556666667     0.172511666667     0.412355666667     0          
67       C      0.150941000000     0.178075666667     0.414415333333     0          
68       C      0.144546666667     0.178720666667     0.363324000000     0          
69       S      0.144497666667     0.185827000000     0.534609333333     0          
70       S      0.143063000000     0.194264000000     0.381709666667     0          
71       H      0.116439000000     0.195044000000     0.662267000000     0          
72       H      0.112209666667     0.182472000000     0.435142333333     0          
73       H      0.113713666667     0.164483333333     0.491422666667     0          
74       H      0.120455333333     0.157717666667     0.595217000000     0          
75       H      0.148012666667     0.161765333333     0.537008000000     0          
76       H      0.160073666667     0.152029333333     0.534066666667     0          
77       H      0.158875333333     0.126242666667     0.581165333333     0          
78       H      0.166968666667     0.121200666667     0.476552333333     0          
79       H      0.198281000000     0.159088666667     0.396487333333     0          
80       H      0.208323000000     0.153865333333     0.633935333333     0          
81       H      0.184995000000     0.146172666667     0.356829000000     0          
82       H      0.182687666667     0.156333666667     0.452364666667     0          
83       H      0.150969000000     0.182112000000     0.459945000000     0          
84       H      0.139357000000     0.183324333333     0.367647666667     0          
85       C      0.135269000000     0.270585666667     0.333333333333     0          
86       C      0.139786333333     0.263392000000     0.353422000000     0          
87       C      0.146627333333     0.267931333333     0.410694000000     0          
88       C      0.146918333333     0.278305333333     0.432249333333     0          
89       C      0.153108333333     0.285167666667     0.488197000000     0          
90       C      0.163892666667     0.286754333333     0.512868666667     0          
91       C      0.167590666667     0.294018000000     0.568825000000     0          
92       C      0.159462333333     0.297706666667     0.585785000000     0          
93       C      0.159988333333     0.305195666667     0.639872333333     0          
94       C      0.165907666667     0.317942333333     0.636138666667     0          
95       C      0.171537000000     0.324330000000     0.580300333333     0          
96       C      0.177140666667     0.003453666667     0.578631666667     0          
97       C      0.177363333333     0.010014000000     0.632789333333     0          
98       C      0.182944666667     0.022760000000     0.633140333333     0          
99       C      0.189065666667     0.030097666667     0.577098666667     0          
100      C      0.200781000000     0.034255666667     0.556689333333     0          
101      C      0.203441000000     0.041284666667     0.500100333333     0          
102      C      0.193668333333     0.042212000000     0.478233000000     0          
103      C      0.193088333333     0.048559666667     0.422598333333     0          
104      C      0.182977000000     0.046128000000     0.386587666667     0          
105      C      0.185731000000     0.054266000000     0.334588000000     0          
106      C      0.197812333333     0.062623666667     0.333333333333     0          
107      S      0.205788000000     0.060832000000     0.392528666667     0          
108      S      0.181397000000     0.034594000000     0.527612333333     0          
109      C      0.182828666667     0.028735000000     0.355053666667     0          
110      C      0.177220000000     0.021936333333     0.407941666667     0          
111      N      0.171876666667     0.009866000000     0.409065000000     0          
112      C      0.171772000000     0.003728000000     0.356166333333     0          
113      C      0.166068333333     0.324408666667     0.357833666667     0          
114      N      0.160728333333     0.318443666667     0.412355666667     0          
115      C      0.155183000000     0.306364666667     0.414415333333     0          
116      C      0.154574333333     0.299393000000     0.363324000000     0          
117      S      0.147440333333     0.292282000000     0.534609333333     0          
118      S      0.138978666667     0.282476333333     0.381709666667     0          
119      H      0.138359000000     0.255344000000     0.662267000000     0          
120      H      0.151007000000     0.263652333333     0.435142333333     0          
121      H      0.169057666667     0.283019333333     0.491422666667     0          
122      H      0.175809000000     0.296417333333     0.595217000000     0          
123      H      0.171575666667     0.319675666667     0.537008000000     0          
124      H      0.181276333333     0.007958333333     0.534066666667     0          
125      H      0.207173000000     0.032400666667     0.581165333333     0          
126      H      0.212185000000     0.045424000000     0.476552333333     0          
127      H      0.173954333333     0.038766333333     0.396487333333     0          
128      H      0.179137000000     0.053899333333     0.633935333333     0          
129      H      0.187003333333     0.038450333333     0.356829000000     0          
130      H      0.176816333333     0.026068000000     0.452364666667     0          
131      H      0.151130333333     0.302380333333     0.459945000000     0          
132      H      0.149984333333     0.289680000000     0.367647666667     0          
133      C      0.063064333333     0.197885000000     0.333333333333     0          
134      C      0.070259000000     0.209507000000     0.353422000000     0          
135      C      0.065659333333     0.211767333333     0.410694000000     0          
136      C      0.055242333333     0.201745333333     0.432249333333     0          
137      C      0.048315000000     0.201053000000     0.488197000000     0          
138      C      0.046655666667     0.210152000000     0.512868666667     0          
139      C      0.039340666667     0.206594000000     0.568825000000     0          
140      C      0.035687000000     0.194881333333     0.585785000000     0          
141      C      0.028165333333     0.187959000000     0.639872333333     0          
142      C      0.015331666667     0.181150666667     0.636138666667     0          
143      C      0.008884333333     0.180375000000     0.580300333333     0          
144      C      0.329676666667     0.173542000000     0.578631666667     0          
145      C      0.323088666667     0.167242333333     0.632789333333     0          
146      C      0.310258000000     0.160100000000     0.633140333333     0          
147      C      0.302853666667     0.158867333333     0.577098666667     0          
148      C      0.298607333333     0.166332666667     0.556689333333     0          
149      C      0.291534000000     0.161979666667     0.500100333333     0          
150      C      0.290663000000     0.151383333333     0.478233000000     0          
151      C      0.284293666667     0.144500666667     0.422598333333     0          
152      C      0.286797000000     0.136907333333     0.386587666667     0          
153      C      0.278610000000     0.131546000000     0.334588000000     0          
154      C      0.270145000000     0.135199666667     0.333333333333     0          
155      S      0.271895000000     0.144876333333     0.392528666667     0          
156      S      0.298386666667     0.146806666667     0.527612333333     0          
157      C      0.304260000000     0.154046666667     0.355053666667     0          
158      C      0.311120000000     0.155251333333     0.407941666667     0          
159      N      0.323271333333     0.161958000000     0.409065000000     0          
160      C      0.329434000000     0.167954666667     0.356166333333     0          
161      C      0.008838666667     0.174883000000     0.357833666667     0          
162      N      0.014860000000     0.175525000000     0.412355666667     0          
163      C      0.027021333333     0.182040333333     0.414415333333     0          
164      C      0.034024000000     0.188366333333     0.363324000000     0          
165      S      0.041207333333     0.188371333333     0.534609333333     0          
166      S      0.051103666667     0.189740000000     0.381709666667     0          
167      H      0.078347333333     0.216092000000     0.662267000000     0          
168      H      0.069928666667     0.220356000000     0.435142333333     0          
169      H      0.050374000000     0.218977666667     0.491422666667     0          
170      H      0.036881000000     0.212345333333     0.595217000000     0          
171      H      0.013556666667     0.185039333333     0.537008000000     0          
172      H      0.325128666667     0.173159000000     0.534066666667     0          
173      H      0.300430333333     0.174503666667     0.581165333333     0          
174      H      0.287324666667     0.166522333333     0.476552333333     0          
175      H      0.294243333333     0.135291666667     0.396487333333     0          
176      H      0.279018666667     0.125382333333     0.633935333333     0          
177      H      0.294480333333     0.148523666667     0.356829000000     0          
178      H      0.306974333333     0.150745333333     0.452364666667     0          
179      H      0.031046333333     0.181988000000     0.459945000000     0          
180      H      0.043804000000     0.193476000000     0.367647666667     0          
1        C      0.123300000000     0.224766666667     0.999998333333     0          
2        O      0.133986666667     0.226637666667     0.999997000000     0          
3        C      0.113652000000     0.212263666667     0.999999333333     0          
4        C      0.115538666667     0.203047666667     0.666666666667     0          
5        N      0.127501000000     0.205202666667     0.666666666667     0          
6        C      0.101293333333     0.210044333333     0.666667666667     0          
7        O      0.092622000000     0.199268000000     0.666668333333     0          
8        C      0.098312666667     0.219660000000     0.666668666667     0          
9        C      0.086940000000     0.217339333333     0.666668333333     0          
10       N      0.077552333333     0.205078333333     0.666666666667     0          
11       C      0.108425666667     0.232063000000     0.666668000000     0          
12       O      0.106056333333     0.240378333333     0.666669000000     0          
13       C      0.120982666667     0.234839666667     0.999999666667     0          
14       C      0.129897333333     0.246154666667     0.999999333333     0          
15       N      0.128092000000     0.256199000000     0.666666666667     0          
16       H      0.108152333333     0.194076000000     0.666667000000     0          
17       H      0.084532666667     0.224226666667     0.666669333333     0          
18       H      0.138925333333     0.247770333333     0.999999000000     0          
19       C      0.210033333333     0.108566666667     0.999998333333     0          
20       O      0.199346666667     0.106695666667     0.999997000000     0          
21       C      0.219681333333     0.121069666667     0.999999333333     0          
22       C      0.217794666667     0.130285666667     0.666666666667     0          
23       N      0.205832333333     0.128130666667     0.666666666667     0          
24       C      0.232040000000     0.123289000000     0.666667666667     0          
25       O      0.240711333333     0.134065333333     0.666668333333     0          
26       C      0.235020666667     0.113673333333     0.666668666667     0          
27       C      0.246393333333     0.115994000000     0.666668333333     0          
28       N      0.255781000000     0.128255000000     0.666666666667     0          
29       C      0.224907666667     0.101270333333     0.666668000000     0          
30       O      0.227277000000     0.092955000000     0.666669000000     0          
31       C      0.212350666667     0.098493666667     0.999999666667     0          
32       C      0.203436000000     0.087178666667     0.999999333333     0          
33       N      0.205241333333     0.077134333333     0.666666666667     0          
34       H      0.225181000000     0.139257333333     0.666667000000     0          
35       H      0.248800666667     0.109106666667     0.666669333333     0          
36       H      0.194408000000     0.085563000000     0.999999000000     0          
37       C      0.134812000000     0.198009333333     0.666666666667     0          
38       C      0.123100000000     0.193581666667     0.686755333333     0          
39       C      0.120858666667     0.186781333333     0.744027333333     0          
40       C      0.130984666667     0.186429666667     0.765582666667     0          
41       C      0.131722000000     0.180259666667     0.821530333333     0          
42       C      0.122597000000     0.169573666667     0.846202000000     0          
43       C      0.126214333333     0.165868333333     0.902158333333     0          
44       C      0.137995666667     0.173892333333     0.919118333333     0          
45       C      0.144991666667     0.173325666667     0.973205666667     0          
46       C      0.151906000000     0.167387333333     0.969472000000     0          
47       C      0.152724333333     0.161775333333     0.913633666667     0          
48       C      0.159661333333     0.156151333333     0.911965000000     0          
49       C      0.166026333333     0.155890333333     0.966122666667     0          
50       C      0.173275666667     0.150287000000     0.966473666667     0          
51       C      0.174559000000     0.144182333333     0.910432000000     0          
52       C      0.167090000000     0.132559000000     0.890022666667     0          
53       C      0.171503666667     0.129882666667     0.833433666667     0          
54       C      0.182147333333     0.139551333333     0.811566333333     0          
55       C      0.189096333333     0.140086666667     0.755931666667     0          
56       C      0.196704666667     0.150111666667     0.719921000000     0          
57       C      0.202137666667     0.147335000000     0.667921333333     0          
58       C      0.198521333333     0.135324000000     0.666666666667     0          
59       S      0.188795666667     0.127439000000     0.725862000000     0          
60       S      0.186694666667     0.151746333333     0.860945666667     0          
61       C      0.179390000000     0.150365333333     0.688387000000     0          
62       C      0.178138333333     0.155959333333     0.741275000000     0          
63       N      0.171330666667     0.161323000000     0.742398333333     0          
64       C      0.165272333333     0.161464333333     0.689499666667     0          
65       C      0.158238333333     0.167188666667     0.691167000000     0          
66       N      0.157556666667     0.172511666667     0.745689000000     0          
67       C      0.150941000000     0.178075666667     0.747748666667     0          
68       C      0.144546666667     0.178720666667     0.696657333333     0          
69       S      0.144497666667     0.185827000000     0.867942666667     0          
70       S      0.143063000000     0.194264000000     0.715043000000     0          
71       H      0.116439000000     0.195044000000     0.995600333333     0          
72       H      0.112209666667     0.182472000000     0.768475666667     0          
73       H      0.113713666667     0.164483333333     0.824756000000     0          
74       H      0.120455333333     0.157717666667     0.928550333333     0          
75       H      0.148012666667     0.161765333333     0.870341333333     0          
76       H      0.160073666667     0.152029333333     0.867400000000     0          
77       H      0.158875333333     0.126242666667     0.914498666667     0          
78       H      0.166968666667     0.121200666667     0.809885666667     0          
79       H      0.198281000000     0.159088666667     0.729820666667     0          
80       H      0.208323000000     0.153865333333     0.967268666667     0          
81       H      0.184995000000     0.146172666667     0.690162333333     0          
82       H      0.182687666667     0.156333666667     0.785698000000     0          
83       H      0.150969000000     0.182112000000     0.793278333333     0          
84       H      0.139357000000     0.183324333333     0.700981000000     0          
85       C      0.135269000000     0.270585666667     0.666666666667     0          
86       C      0.139786333333     0.263392000000     0.686755333333     0          
87       C      0.146627333333     0.267931333333     0.744027333333     0          
88       C      0.146918333333     0.278305333333     0.765582666667     0          
89       C      0.153108333333     0.285167666667     0.821530333333     0          
90       C      0.163892666667     0.286754333333     0.846202000000     0          
91       C      0.167590666667     0.294018000000     0.902158333333     0          
92       C      0.159462333333     0.297706666667     0.919118333333     0          
93       C      0.159988333333     0.305195666667     0.973205666667     0          
94       C      0.165907666667     0.317942333333     0.969472000000     0          
95       C      0.171537000000     0.324330000000     0.913633666667     0          
96       C      0.177140666667     0.003453666667     0.911965000000     0          
97       C      0.177363333333     0.010014000000     0.966122666667     0          
98       C      0.182944666667     0.022760000000     0.966473666667     0          
99       C      0.189065666667     0.030097666667     0.910432000000     0          
100      C      0.200781000000     0.034255666667     0.890022666667     0          
101      C      0.203441000000     0.041284666667     0.833433666667     0          
102      C      0.193668333333     0.042212000000     0.811566333333     0          
103      C      0.193088333333     0.048559666667     0.755931666667     0          
104      C      0.182977000000     0.046128000000     0.719921000000     0          
105      C      0.185731000000     0.054266000000     0.667921333333     0          
106      C      0.197812333333     0.062623666667     0.666666666667     0          
107      S      0.205788000000     0.060832000000     0.725862000000     0          
108      S      0.181397000000     0.034594000000     0.860945666667     0          
109      C      0.182828666667     0.028735000000     0.688387000000     0          
110      C      0.177220000000     0.021936333333     0.741275000000     0          
111      N      0.171876666667     0.009866000000     0.742398333333     0          
112      C      0.171772000000     0.003728000000     0.689499666667     0          
113      C      0.166068333333     0.324408666667     0.691167000000     0          
114      N      0.160728333333     0.318443666667     0.745689000000     0          
115      C      0.155183000000     0.306364666667     0.747748666667     0          
116      C      0.154574333333     0.299393000000     0.696657333333     0          
117      S      0.147440333333     0.292282000000     0.867942666667     0          
118      S      0.138978666667     0.282476333333     0.715043000000     0          
119      H      0.138359000000     0.255344000000     0.995600333333     0          
120      H      0.151007000000     0.263652333333     0.768475666667     0          
121      H      0.169057666667     0.283019333333     0.824756000000     0          
122      H      0.175809000000     0.296417333333     0.928550333333     0          
123      H      0.171575666667     0.319675666667     0.870341333333     0          
124      H      0.181276333333     0.007958333333     0.867400000000     0          
125      H      0.207173000000     0.032400666667     0.914498666667     0          
126      H      0.212185000000     0.045424000000     0.809885666667     0          
127      H      0.173954333333     0.038766333333     0.729820666667     0          
128      H      0.179137000000     0.053899333333     0.967268666667     0          
129      H      0.187003333333     0.038450333333     0.690162333333     0          
130      H      0.176816333333     0.026068000000     0.785698000000     0          
131      H      0.151130333333     0.302380333333     0.793278333333     0          
132      H      0.149984333333     0.289680000000     0.700981000000     0          
133      C      0.063064333333     0.197885000000     0.666666666667     0          
134      C      0.070259000000     0.209507000000     0.686755333333     0          
135      C      0.065659333333     0.211767333333     0.744027333333     0          
136      C      0.055242333333     0.201745333333     0.765582666667     0          
137      C      0.048315000000     0.201053000000     0.821530333333     0          
138      C      0.046655666667     0.210152000000     0.846202000000     0          
139      C      0.039340666667     0.206594000000     0.902158333333     0          
140      C      0.035687000000     0.194881333333     0.919118333333     0          
141      C      0.028165333333     0.187959000000     0.973205666667     0          
142      C      0.015331666667     0.181150666667     0.969472000000     0          
143      C      0.008884333333     0.180375000000     0.913633666667     0          
144      C      0.329676666667     0.173542000000     0.911965000000     0          
145      C      0.323088666667     0.167242333333     0.966122666667     0          
146      C      0.310258000000     0.160100000000     0.966473666667     0          
147      C      0.302853666667     0.158867333333     0.910432000000     0          
148      C      0.298607333333     0.166332666667     0.890022666667     0          
149      C      0.291534000000     0.161979666667     0.833433666667     0          
150      C      0.290663000000     0.151383333333     0.811566333333     0          
151      C      0.284293666667     0.144500666667     0.755931666667     0          
152      C      0.286797000000     0.136907333333     0.719921000000     0          
153      C      0.278610000000     0.131546000000     0.667921333333     0          
154      C      0.270145000000     0.135199666667     0.666666666667     0          
155      S      0.271895000000     0.144876333333     0.725862000000     0          
156      S      0.298386666667     0.146806666667     0.860945666667     0          
157      C      0.304260000000     0.154046666667     0.688387000000     0          
158      C      0.311120000000     0.155251333333     0.741275000000     0          
159      N      0.323271333333     0.161958000000     0.742398333333     0          
160      C      0.329434000000     0.167954666667     0.689499666667     0          
161      C      0.008838666667     0.174883000000     0.691167000000     0          
162      N      0.014860000000     0.175525000000     0.745689000000     0          
163      C      0.027021333333     0.182040333333     0.747748666667     0          
164      C      0.034024000000     0.188366333333     0.696657333333     0          
165      S      0.041207333333     0.188371333333     0.867942666667     0          
166      S      0.051103666667     0.189740000000     0.715043000000     0          
167      H      0.078347333333     0.216092000000     0.995600333333     0          
168      H      0.069928666667     0.220356000000     0.768475666667     0          
169      H      0.050374000000     0.218977666667     0.824756000000     0          
170      H      0.036881000000     0.212345333333     0.928550333333     0          
171      H      0.013556666667     0.185039333333     0.870341333333     0          
172      H      0.325128666667     0.173159000000     0.867400000000     0          
173      H      0.300430333333     0.174503666667     0.914498666667     0          
174      H      0.287324666667     0.166522333333     0.809885666667     0          
175      H      0.294243333333     0.135291666667     0.729820666667     0          
176      H      0.279018666667     0.125382333333     0.967268666667     0          
177      H      0.294480333333     0.148523666667     0.690162333333     0          
178      H      0.306974333333     0.150745333333     0.785698000000     0          
179      H      0.031046333333     0.181988000000     0.793278333333     0          
180      H      0.043804000000     0.193476000000     0.700981000000     0          
1        C      0.123300000000     0.558100000000     0.333331666667     0          
2        O      0.133986666667     0.559971000000     0.333330333333     0          
3        C      0.113652000000     0.545597000000     0.333332666667     0          
4        C      0.115538666667     0.536381000000     0.000000000000     0          
5        N      0.127501000000     0.538536000000     0.000000000000     0          
6        C      0.101293333333     0.543377666667     0.000001000000     0          
7        O      0.092622000000     0.532601333333     0.000001666667     0          
8        C      0.098312666667     0.552993333333     0.000002000000     0          
9        C      0.086940000000     0.550672666667     0.000001666667     0          
10       N      0.077552333333     0.538411666667     0.000000000000     0          
11       C      0.108425666667     0.565396333333     0.000001333333     0          
12       O      0.106056333333     0.573711666667     0.000002333333     0          
13       C      0.120982666667     0.568173000000     0.333333000000     0          
14       C      0.129897333333     0.579488000000     0.333332666667     0          
15       N      0.128092000000     0.589532333333     0.000000000000     0          
16       H      0.108152333333     0.527409333333     0.000000333333     0          
17       H      0.084532666667     0.557560000000     0.000002666667     0          
18       H      0.138925333333     0.581103666667     0.333332333333     0          
19       C      0.210033333333     0.441900000000     0.333331666667     0          
20       O      0.199346666667     0.440029000000     0.333330333333     0          
21       C      0.219681333333     0.454403000000     0.333332666667     0          
22       C      0.217794666667     0.463619000000     0.000000000000     0          
23       N      0.205832333333     0.461464000000     0.000000000000     0          
24       C      0.232040000000     0.456622333333     0.000001000000     0          
25       O      0.240711333333     0.467398666667     0.000001666667     0          
26       C      0.235020666667     0.447006666667     0.000002000000     0          
27       C      0.246393333333     0.449327333333     0.000001666667     0          
28       N      0.255781000000     0.461588333333     0.000000000000     0          
29       C      0.224907666667     0.434603666667     0.000001333333     0          
30       O      0.227277000000     0.426288333333     0.000002333333     0          
31       C      0.212350666667     0.431827000000     0.333333000000     0          
32       C      0.203436000000     0.420512000000     0.333332666667     0          
33       N      0.205241333333     0.410467666667     0.000000000000     0          
34       H      0.225181000000     0.472590666667     0.000000333333     0          
35       H      0.248800666667     0.442440000000     0.000002666667     0          
36       H      0.194408000000     0.418896333333     0.333332333333     0          
37       C      0.134812000000     0.531342666667     0.000000000000     0          
38       C      0.123100000000     0.526915000000     0.020088666667     0          
39       C      0.120858666667     0.520114666667     0.077360666667     0          
40       C      0.130984666667     0.519763000000     0.098916000000     0          
41       C      0.131722000000     0.513593000000     0.154863666667     0          
42       C      0.122597000000     0.502907000000     0.179535333333     0          
43       C      0.126214333333     0.499201666667     0.235491666667     0          
44       C      0.137995666667     0.507225666667     0.252451666667     0          
45       C      0.144991666667     0.506659000000     0.306539000000     0          
46       C      0.151906000000     0.500720666667     0.302805333333     0          
47       C      0.152724333333     0.495108666667     0.246967000000     0          
48       C      0.159661333333     0.489484666667     0.245298333333     0          
49       C      0.166026333333     0.489223666667     0.299456000000     0          
50       C      0.173275666667     0.483620333333     0.299807000000     0          
51       C      0.174559000000     0.477515666667     0.243765333333     0          
52       C      0.167090000000     0.465892333333     0.223356000000     0          
53       C      0.171503666667     0.463216000000     0.166767000000     0          
54       C      0.182147333333     0.472884666667     0.144899666667     0          
55       C      0.189096333333     0.473420000000     0.089265000000     0          
56       C      0.196704666667     0.483445000000     0.053254333333     0          
57       C      0.202137666667     0.480668333333     0.001254666667     0          
58       C      0.198521333333     0.468657333333     0.000000000000     0          
59       S      0.188795666667     0.460772333333     0.059195333333     0          
60       S      0.186694666667     0.485079666667     0.194279000000     0          
61       C      0.179390000000     0.483698666667     0.021720333333     0          
62       C      0.178138333333     0.489292666667     0.074608333333     0          
63       N      0.171330666667     0.494656333333     0.075731666667     0          
64       C      0.165272333333     0.494797666667     0.022833000000     0          
65       C      0.158238333333     0.500522000000     0.024500333333     0          
66       N      0.157556666667     0.505845000000     0.079022333333     0          
67       C      0.150941000000     0.511409000000     0.081082000000     0          
68       C      0.144546666667     0.512054000000     0.029990666667     0          
69       S      0.144497666667     0.519160333333     0.201276000000     0          
70       S      0.143063000000     0.527597333333     0.048376333333     0          
71       H      0.116439000000     0.528377333333     0.328933666667     0          
72       H      0.112209666667     0.515805333333     0.101809000000     0          
73       H      0.113713666667     0.497816666667     0.158089333333     0          
74       H      0.120455333333     0.491051000000     0.261883666667     0          
75       H      0.148012666667     0.495098666667     0.203674666667     0          
76       H      0.160073666667     0.485362666667     0.200733333333     0          
77       H      0.158875333333     0.459576000000     0.247832000000     0          
78       H      0.166968666667     0.454534000000     0.143219000000     0          
79       H      0.198281000000     0.492422000000     0.063154000000     0          
80       H      0.208323000000     0.487198666667     0.300602000000     0          
81       H      0.184995000000     0.479506000000     0.023495666667     0          
82       H      0.182687666667     0.489667000000     0.119031333333     0          
83       H      0.150969000000     0.515445333333     0.126611666667     0          
84       H      0.139357000000     0.516657666667     0.034314333333     0          
85       C      0.135269000000     0.603919000000     0.000000000000     0          
86       C      0.139786333333     0.596725333333     0.020088666667     0          
87       C      0.146627333333     0.601264666667     0.077360666667     0          
88       C      0.146918333333     0.611638666667     0.098916000000     0          
89       C      0.153108333333     0.618501000000     0.154863666667     0          
90       C      0.163892666667     0.620087666667     0.179535333333     0          
91       C      0.167590666667     0.627351333333     0.235491666667     0          
92       C      0.159462333333     0.631040000000     0.252451666667     0          
93       C      0.159988333333     0.638529000000     0.306539000000     0          
94       C      0.165907666667     0.651275666667     0.302805333333     0          
95       C      0.171537000000     0.657663333333     0.246967000000     0          
96       C      0.177140666667     0.336787000000     0.245298333333     0          
97       C      0.177363333333     0.343347333333     0.299456000000     0          
98       C      0.182944666667     0.356093333333     0.299807000000     0          
99       C      0.189065666667     0.363431000000     0.243765333333     0          
100      C      0.200781000000     0.367589000000     0.223356000000     0          
101      C      0.203441000000     0.374618000000     0.166767000000     0          
102      C      0.193668333333     0.375545333333     0.144899666667     0          
103      C      0.193088333333     0.381893000000     0.089265000000     0          
104      C      0.182977000000     0.379461333333     0.053254333333     0          
105      C      0.185731000000     0.387599333333     0.001254666667     0          
106      C      0.197812333333     0.395957000000     0.000000000000     0          
107      S      0.205788000000     0.394165333333     0.059195333333     0          
108      S      0.181397000000     0.367927333333     0.194279000000     0          
109      C      0.182828666667     0.362068333333     0.021720333333     0          
110      C      0.177220000000     0.355269666667     0.074608333333     0          
111      N      0.171876666667     0.343199333333     0.075731666667     0          
112      C      0.171772000000     0.337061333333     0.022833000000     0          
113      C      0.166068333333     0.657742000000     0.024500333333     0          
114      N      0.160728333333     0.651777000000     0.079022333333     0          
115      C      0.155183000000     0.639698000000     0.081082000000     0          
116      C      0.154574333333     0.632726333333     0.029990666667     0          
117      S      0.147440333333     0.625615333333     0.201276000000     0          
118      S      0.138978666667     0.615809666667     0.048376333333     0          
119      H      0.138359000000     0.588677333333     0.328933666667     0          
120      H      0.151007000000     0.596985666667     0.101809000000     0          
121      H      0.169057666667     0.616352666667     0.158089333333     0          
122      H      0.175809000000     0.629750666667     0.261883666667     0          
123      H      0.171575666667     0.653009000000     0.203674666667     0          
124      H      0.181276333333     0.341291666667     0.200733333333     0          
125      H      0.207173000000     0.365734000000     0.247832000000     0          
126      H      0.212185000000     0.378757333333     0.143219000000     0          
127      H      0.173954333333     0.372099666667     0.063154000000     0          
128      H      0.179137000000     0.387232666667     0.300602000000     0          
129      H      0.187003333333     0.371783666667     0.023495666667     0          
130      H      0.176816333333     0.359401333333     0.119031333333     0          
131      H      0.151130333333     0.635713666667     0.126611666667     0          
132      H      0.149984333333     0.623013333333     0.034314333333     0          
133      C      0.063064333333     0.531218333333     0.000000000000     0          
134      C      0.070259000000     0.542840333333     0.020088666667     0          
135      C      0.065659333333     0.545100666667     0.077360666667     0          
136      C      0.055242333333     0.535078666667     0.098916000000     0          
137      C      0.048315000000     0.534386333333     0.154863666667     0          
138      C      0.046655666667     0.543485333333     0.179535333333     0          
139      C      0.039340666667     0.539927333333     0.235491666667     0          
140      C      0.035687000000     0.528214666667     0.252451666667     0          
141      C      0.028165333333     0.521292333333     0.306539000000     0          
142      C      0.015331666667     0.514484000000     0.302805333333     0          
143      C      0.008884333333     0.513708333333     0.246967000000     0          
144      C      0.329676666667     0.506875333333     0.245298333333     0          
145      C      0.323088666667     0.500575666667     0.299456000000     0          
146      C      0.310258000000     0.493433333333     0.299807000000     0          
147      C      0.302853666667     0.492200666667     0.243765333333     0          
148      C      0.298607333333     0.499666000000     0.223356000000     0          
149      C      0.291534000000     0.495313000000     0.166767000000     0          
150      C      0.290663000000     0.484716666667     0.144899666667     0          
151      C      0.284293666667     0.477834000000     0.089265000000     0          
152      C      0.286797000000     0.470240666667     0.053254333333     0          
153      C      0.278610000000     0.464879333333     0.001254666667     0          
154      C      0.270145000000     0.468533000000     0.000000000000     0          
155      S      0.271895000000     0.478209666667     0.059195333333     0          
156      S      0.298386666667     0.480140000000     0.194279000000     0          
157      C      0.304260000000     0.487380000000     0.021720333333     0          
158      C      0.311120000000     0.488584666667     0.074608333333     0          
159      N      0.323271333333     0.495291333333     0.075731666667     0          
160      C      0.329434000000     0.501288000000     0.022833000000     0          
161      C      0.008838666667     0.508216333333     0.024500333333     0          
162      N      0.014860000000     0.508858333333     0.079022333333     0          
163      C      0.027021333333     0.515373666667     0.081082000000     0          
164      C      0.034024000000     0.521699666667     0.029990666667     0          
165      S      0.041207333333     0.521704666667     0.201276000000     0          
166      S      0.051103666667     0.523073333333     0.048376333333     0          
167      H      0.078347333333     0.549425333333     0.328933666667     0          
168      H      0.069928666667     0.553689333333     0.101809000000     0          
169      H      0.050374000000     0.552311000000     0.158089333333     0          
170      H      0.036881000000     0.545678666667     0.261883666667     0          
171      H      0.013556666667     0.518372666667     0.203674666667     0          
172      H      0.325128666667     0.506492333333     0.200733333333     0          
173      H      0.300430333333     0.507837000000     0.247832000000     0          
174      H      0.287324666667     0.499855666667     0.143219000000     0          
175      H      0.294243333333     0.468625000000     0.063154000000     0          
176      H      0.279018666667     0.458715666667     0.300602000000     0          
177      H      0.294480333333     0.481857000000     0.023495666667     0          
178      H      0.306974333333     0.484078666667     0.119031333333     0          
179      H      0.031046333333     0.515321333333     0.126611666667     0          
180      H      0.043804000000     0.526809333333     0.034314333333     0          
1        C      0.123300000000     0.558100000000     0.666665000000     0          
2        O      0.133986666667     0.559971000000     0.666663666667     0          
3        C      0.113652000000     0.545597000000     0.666666000000     0          
4        C      0.115538666667     0.536381000000     0.333333333333     0          
5        N      0.127501000000     0.538536000000     0.333333333333     0          
6        C      0.101293333333     0.543377666667     0.333334333333     0          
7        O      0.092622000000     0.532601333333     0.333335000000     0          
8        C      0.098312666667     0.552993333333     0.333335333333     0          
9        C      0.086940000000     0.550672666667     0.333335000000     0          
10       N      0.077552333333     0.538411666667     0.333333333333     0          
11       C      0.108425666667     0.565396333333     0.333334666667     0          
12       O      0.106056333333     0.573711666667     0.333335666667     0          
13       C      0.120982666667     0.568173000000     0.666666333333     0          
14       C      0.129897333333     0.579488000000     0.666666000000     0          
15       N      0.128092000000     0.589532333333     0.333333333333     0          
16       H      0.108152333333     0.527409333333     0.333333666667     0          
17       H      0.084532666667     0.557560000000     0.333336000000     0          
18       H      0.138925333333     0.581103666667     0.666665666667     0          
19       C      0.210033333333     0.441900000000     0.666665000000     0          
20       O      0.199346666667     0.440029000000     0.666663666667     0          
21       C      0.219681333333     0.454403000000     0.666666000000     0          
22       C      0.217794666667     0.463619000000     0.333333333333     0          
23       N      0.205832333333     0.461464000000     0.333333333333     0          
24       C      0.232040000000     0.456622333333     0.333334333333     0          
25       O      0.240711333333     0.467398666667     0.333335000000     0          
26       C      0.235020666667     0.447006666667     0.333335333333     0          
27       C      0.246393333333     0.449327333333     0.333335000000     0          
28       N      0.255781000000     0.461588333333     0.333333333333     0          
29       C      0.224907666667     0.434603666667     0.333334666667     0          
30       O      0.227277000000     0.426288333333     0.333335666667     0          
31       C      0.212350666667     0.431827000000     0.666666333333     0          
32       C      0.203436000000     0.420512000000     0.666666000000     0          
33       N      0.205241333333     0.410467666667     0.333333333333     0          
34       H      0.225181000000     0.472590666667     0.333333666667     0          
35       H      0.248800666667     0.442440000000     0.333336000000     0          
36       H      0.194408000000     0.418896333333     0.666665666667     0          
37       C      0.134812000000     0.531342666667     0.333333333333     0          
38       C      0.123100000000     0.526915000000     0.353422000000     0          
39       C      0.120858666667     0.520114666667     0.410694000000     0          
40       C      0.130984666667     0.519763000000     0.432249333333     0          
41       C      0.131722000000     0.513593000000     0.488197000000     0          
42       C      0.122597000000     0.502907000000     0.512868666667     0          
43       C      0.126214333333     0.499201666667     0.568825000000     0          
44       C      0.137995666667     0.507225666667     0.585785000000     0          
45       C      0.144991666667     0.506659000000     0.639872333333     0          
46       C      0.151906000000     0.500720666667     0.636138666667     0          
47       C      0.152724333333     0.495108666667     0.580300333333     0          
48       C      0.159661333333     0.489484666667     0.578631666667     0          
49       C      0.166026333333     0.489223666667     0.632789333333     0          
50       C      0.173275666667     0.483620333333     0.633140333333     0          
51       C      0.174559000000     0.477515666667     0.577098666667     0          
52       C      0.167090000000     0.465892333333     0.556689333333     0          
53       C      0.171503666667     0.463216000000     0.500100333333     0          
54       C      0.182147333333     0.472884666667     0.478233000000     0          
55       C      0.189096333333     0.473420000000     0.422598333333     0          
56       C      0.196704666667     0.483445000000     0.386587666667     0          
57       C      0.202137666667     0.480668333333     0.334588000000     0          
58       C      0.198521333333     0.468657333333     0.333333333333     0          
59       S      0.188795666667     0.460772333333     0.392528666667     0          
60       S      0.186694666667     0.485079666667     0.527612333333     0          
61       C      0.179390000000     0.483698666667     0.355053666667     0          
62       C      0.178138333333     0.489292666667     0.407941666667     0          
63       N      0.171330666667     0.494656333333     0.409065000000     0          
64       C      0.165272333333     0.494797666667     0.356166333333     0          
65       C      0.158238333333     0.500522000000     0.357833666667     0          
66       N      0.157556666667     0.505845000000     0.412355666667     0          
67       C      0.150941000000     0.511409000000     0.414415333333     0          
68       C      0.144546666667     0.512054000000     0.363324000000     0          
69       S      0.144497666667     0.519160333333     0.534609333333     0          
70       S      0.143063000000     0.527597333333     0.381709666667     0          
71       H      0.116439000000     0.528377333333     0.662267000000     0          
72       H      0.112209666667     0.515805333333     0.435142333333     0          
73       H      0.113713666667     0.497816666667     0.491422666667     0          
74       H      0.120455333333     0.491051000000     0.595217000000     0          
75       H      0.148012666667     0.495098666667     0.537008000000     0          
76       H      0.160073666667     0.485362666667     0.534066666667     0          
77       H      0.158875333333     0.459576000000     0.581165333333     0          
78       H      0.166968666667     0.454534000000     0.476552333333     0          
79       H      0.198281000000     0.492422000000     0.396487333333     0          
80       H      0.208323000000     0.487198666667     0.633935333333     0          
81       H      0.184995000000     0.479506000000     0.356829000000     0          
82       H      0.182687666667     0.489667000000     0.452364666667     0          
83       H      0.150969000000     0.515445333333     0.459945000000     0          
84       H      0.139357000000     0.516657666667     0.367647666667     0          
85       C      0.135269000000     0.603919000000     0.333333333333     0          
86       C      0.139786333333     0.596725333333     0.353422000000     0          
87       C      0.146627333333     0.601264666667     0.410694000000     0          
88       C      0.146918333333     0.611638666667     0.432249333333     0          
89       C      0.153108333333     0.618501000000     0.488197000000     0          
90       C      0.163892666667     0.620087666667     0.512868666667     0          
91       C      0.167590666667     0.627351333333     0.568825000000     0          
92       C      0.159462333333     0.631040000000     0.585785000000     0          
93       C      0.159988333333     0.638529000000     0.639872333333     0          
94       C      0.165907666667     0.651275666667     0.636138666667     0          
95       C      0.171537000000     0.657663333333     0.580300333333     0          
96       C      0.177140666667     0.336787000000     0.578631666667     0          
97       C      0.177363333333     0.343347333333     0.632789333333     0          
98       C      0.182944666667     0.356093333333     0.633140333333     0          
99       C      0.189065666667     0.363431000000     0.577098666667     0          
100      C      0.200781000000     0.367589000000     0.556689333333     0          
101      C      0.203441000000     0.374618000000     0.500100333333     0          
102      C      0.193668333333     0.375545333333     0.478233000000     0          
103      C      0.193088333333     0.381893000000     0.422598333333     0          
104      C      0.182977000000     0.379461333333     0.386587666667     0          
105      C      0.185731000000     0.387599333333     0.334588000000     0          
106      C      0.197812333333     0.395957000000     0.333333333333     0          
107      S      0.205788000000     0.394165333333     0.392528666667     0          
108      S      0.181397000000     0.367927333333     0.527612333333     0          
109      C      0.182828666667     0.362068333333     0.355053666667     0          
110      C      0.177220000000     0.355269666667     0.407941666667     0          
111      N      0.171876666667     0.343199333333     0.409065000000     0          
112      C      0.171772000000     0.337061333333     0.356166333333     0          
113      C      0.166068333333     0.657742000000     0.357833666667     0          
114      N      0.160728333333     0.651777000000     0.412355666667     0          
115      C      0.155183000000     0.639698000000     0.414415333333     0          
116      C      0.154574333333     0.632726333333     0.363324000000     0          
117      S      0.147440333333     0.625615333333     0.534609333333     0          
118      S      0.138978666667     0.615809666667     0.381709666667     0          
119      H      0.138359000000     0.588677333333     0.662267000000     0          
120      H      0.151007000000     0.596985666667     0.435142333333     0          
121      H      0.169057666667     0.616352666667     0.491422666667     0          
122      H      0.175809000000     0.629750666667     0.595217000000     0          
123      H      0.171575666667     0.653009000000     0.537008000000     0          
124      H      0.181276333333     0.341291666667     0.534066666667     0          
125      H      0.207173000000     0.365734000000     0.581165333333     0          
126      H      0.212185000000     0.378757333333     0.476552333333     0          
127      H      0.173954333333     0.372099666667     0.396487333333     0          
128      H      0.179137000000     0.387232666667     0.633935333333     0          
129      H      0.187003333333     0.371783666667     0.356829000000     0          
130      H      0.176816333333     0.359401333333     0.452364666667     0          
131      H      0.151130333333     0.635713666667     0.459945000000     0          
132      H      0.149984333333     0.623013333333     0.367647666667     0          
133      C      0.063064333333     0.531218333333     0.333333333333     0          
134      C      0.070259000000     0.542840333333     0.353422000000     0          
135      C      0.065659333333     0.545100666667     0.410694000000     0          
136      C      0.055242333333     0.535078666667     0.432249333333     0          
137      C      0.048315000000     0.534386333333     0.488197000000     0          
138      C      0.046655666667     0.543485333333     0.512868666667     0          
139      C      0.039340666667     0.539927333333     0.568825000000     0          
140      C      0.035687000000     0.528214666667     0.585785000000     0          
141      C      0.028165333333     0.521292333333     0.639872333333     0          
142      C      0.015331666667     0.514484000000     0.636138666667     0          
143      C      0.008884333333     0.513708333333     0.580300333333     0          
144      C      0.329676666667     0.506875333333     0.578631666667     0          
145      C      0.323088666667     0.500575666667     0.632789333333     0          
146      C      0.310258000000     0.493433333333     0.633140333333     0          
147      C      0.302853666667     0.492200666667     0.577098666667     0          
148      C      0.298607333333     0.499666000000     0.556689333333     0          
149      C      0.291534000000     0.495313000000     0.500100333333     0          
150      C      0.290663000000     0.484716666667     0.478233000000     0          
151      C      0.284293666667     0.477834000000     0.422598333333     0          
152      C      0.286797000000     0.470240666667     0.386587666667     0          
153      C      0.278610000000     0.464879333333     0.334588000000     0          
154      C      0.270145000000     0.468533000000     0.333333333333     0          
155      S      0.271895000000     0.478209666667     0.392528666667     0          
156      S      0.298386666667     0.480140000000     0.527612333333     0          
157      C      0.304260000000     0.487380000000     0.355053666667     0          
158      C      0.311120000000     0.488584666667     0.407941666667     0          
159      N      0.323271333333     0.495291333333     0.409065000000     0          
160      C      0.329434000000     0.501288000000     0.356166333333     0          
161      C      0.008838666667     0.508216333333     0.357833666667     0          
162      N      0.014860000000     0.508858333333     0.412355666667     0          
163      C      0.027021333333     0.515373666667     0.414415333333     0          
164      C      0.034024000000     0.521699666667     0.363324000000     0          
165      S      0.041207333333     0.521704666667     0.534609333333     0          
166      S      0.051103666667     0.523073333333     0.381709666667     0          
167      H      0.078347333333     0.549425333333     0.662267000000     0          
168      H      0.069928666667     0.553689333333     0.435142333333     0          
169      H      0.050374000000     0.552311000000     0.491422666667     0          
170      H      0.036881000000     0.545678666667     0.595217000000     0          
171      H      0.013556666667     0.518372666667     0.537008000000     0          
172      H      0.325128666667     0.506492333333     0.534066666667     0          
173      H      0.300430333333     0.507837000000     0.581165333333     0          
174      H      0.287324666667     0.499855666667     0.476552333333     0          
175      H      0.294243333333     0.468625000000     0.396487333333     0          
176      H      0.279018666667     0.458715666667     0.633935333333     0          
177      H      0.294480333333     0.481857000000     0.356829000000     0          
178      H      0.306974333333     0.484078666667     0.452364666667     0          
179      H      0.031046333333     0.515321333333     0.459945000000     0          
180      H      0.043804000000     0.526809333333     0.367647666667     0          
1        C      0.123300000000     0.558100000000     0.999998333333     0          
2        O      0.133986666667     0.559971000000     0.999997000000     0          
3        C      0.113652000000     0.545597000000     0.999999333333     0          
4        C      0.115538666667     0.536381000000     0.666666666667     0          
5        N      0.127501000000     0.538536000000     0.666666666667     0          
6        C      0.101293333333     0.543377666667     0.666667666667     0          
7        O      0.092622000000     0.532601333333     0.666668333333     0          
8        C      0.098312666667     0.552993333333     0.666668666667     0          
9        C      0.086940000000     0.550672666667     0.666668333333     0          
10       N      0.077552333333     0.538411666667     0.666666666667     0          
11       C      0.108425666667     0.565396333333     0.666668000000     0          
12       O      0.106056333333     0.573711666667     0.666669000000     0          
13       C      0.120982666667     0.568173000000     0.999999666667     0          
14       C      0.129897333333     0.579488000000     0.999999333333     0          
15       N      0.128092000000     0.589532333333     0.666666666667     0          
16       H      0.108152333333     0.527409333333     0.666667000000     0          
17       H      0.084532666667     0.557560000000     0.666669333333     0          
18       H      0.138925333333     0.581103666667     0.999999000000     0          
19       C      0.210033333333     0.441900000000     0.999998333333     0          
20       O      0.199346666667     0.440029000000     0.999997000000     0          
21       C      0.219681333333     0.454403000000     0.999999333333     0          
22       C      0.217794666667     0.463619000000     0.666666666667     0          
23       N      0.205832333333     0.461464000000     0.666666666667     0          
24       C      0.232040000000     0.456622333333     0.666667666667     0          
25       O      0.240711333333     0.467398666667     0.666668333333     0          
26       C      0.235020666667     0.447006666667     0.666668666667     0          
27       C      0.246393333333     0.449327333333     0.666668333333     0          
28       N      0.255781000000     0.461588333333     0.666666666667     0          
29       C      0.224907666667     0.434603666667     0.666668000000     0          
30       O      0.227277000000     0.426288333333     0.666669000000     0          
31       C      0.212350666667     0.431827000000     0.999999666667     0          
32       C      0.203436000000     0.420512000000     0.999999333333     0          
33       N      0.205241333333     0.410467666667     0.666666666667     0          
34       H      0.225181000000     0.472590666667     0.666667000000     0          
35       H      0.248800666667     0.442440000000     0.666669333333     0          
36       H      0.194408000000     0.418896333333     0.999999000000     0          
37       C      0.134812000000     0.531342666667     0.666666666667     0          
38       C      0.123100000000     0.526915000000     0.686755333333     0          
39       C      0.120858666667     0.520114666667     0.744027333333     0          
40       C      0.130984666667     0.519763000000     0.765582666667     0          
41       C      0.131722000000     0.513593000000     0.821530333333     0          
42       C      0.122597000000     0.502907000000     0.846202000000     0          
43       C      0.126214333333     0.499201666667     0.902158333333     0          
44       C      0.137995666667     0.507225666667     0.919118333333     0          
45       C      0.144991666667     0.506659000000     0.973205666667     0          
46       C      0.151906000000     0.500720666667     0.969472000000     0          
47       C      0.152724333333     0.495108666667     0.913633666667     0          
48       C      0.159661333333     0.489484666667     0.911965000000     0          
49       C      0.166026333333     0.489223666667     0.966122666667     0          
50       C      0.173275666667     0.483620333333     0.966473666667     0          
51       C      0.174559000000     0.477515666667     0.910432000000     0          
52       C      0.167090000000     0.465892333333     0.890022666667     0          
53       C      0.171503666667     0.463216000000     0.833433666667     0          
54       C      0.182147333333     0.472884666667     0.811566333333     0          
55       C      0.189096333333     0.473420000000     0.755931666667     0          
56       C      0.196704666667     0.483445000000     0.719921000000     0          
57       C      0.202137666667     0.480668333333     0.667921333333     0          
58       C      0.198521333333     0.468657333333     0.666666666667     0          
59       S      0.188795666667     0.460772333333     0.725862000000     0          
60       S      0.186694666667     0.485079666667     0.860945666667     0          
61       C      0.179390000000     0.483698666667     0.688387000000     0          
62       C      0.178138333333     0.489292666667     0.741275000000     0          
63       N      0.171330666667     0.494656333333     0.742398333333     0          
64       C      0.165272333333     0.494797666667     0.689499666667     0          
65       C      0.158238333333     0.500522000000     0.691167000000     0          
66       N      0.157556666667     0.505845000000     0.745689000000     0          
67       C      0.150941000000     0.511409000000     0.747748666667     0          
68       C      0.144546666667     0.512054000000     0.696657333333     0          
69       S      0.144497666667     0.519160333333     0.867942666667     0          
70       S      0.143063000000     0.527597333333     0.715043000000     0          
71       H      0.116439000000     0.528377333333     0.995600333333     0          
72       H      0.112209666667     0.515805333333     0.768475666667     0          
73       H      0.113713666667     0.497816666667     0.824756000000     0          
74       H      0.120455333333     0.491051000000     0.928550333333     0          
75       H      0.148012666667     0.495098666667     0.870341333333     0          
76       H      0.160073666667     0.485362666667     0.867400000000     0          
77       H      0.158875333333     0.459576000000     0.914498666667     0          
78       H      0.166968666667     0.454534000000     0.809885666667     0          
79       H      0.198281000000     0.492422000000     0.729820666667     0          
80       H      0.208323000000     0.487198666667     0.967268666667     0          
81       H      0.184995000000     0.479506000000     0.690162333333     0          
82       H      0.182687666667     0.489667000000     0.785698000000     0          
83       H      0.150969000000     0.515445333333     0.793278333333     0          
84       H      0.139357000000     0.516657666667     0.700981000000     0          
85       C      0.135269000000     0.603919000000     0.666666666667     0          
86       C      0.139786333333     0.596725333333     0.686755333333     0          
87       C      0.146627333333     0.601264666667     0.744027333333     0          
88       C      0.146918333333     0.611638666667     0.765582666667     0          
89       C      0.153108333333     0.618501000000     0.821530333333     0          
90       C      0.163892666667     0.620087666667     0.846202000000     0          
91       C      0.167590666667     0.627351333333     0.902158333333     0          
92       C      0.159462333333     0.631040000000     0.919118333333     0          
93       C      0.159988333333     0.638529000000     0.973205666667     0          
94       C      0.165907666667     0.651275666667     0.969472000000     0          
95       C      0.171537000000     0.657663333333     0.913633666667     0          
96       C      0.177140666667     0.336787000000     0.911965000000     0          
97       C      0.177363333333     0.343347333333     0.966122666667     0          
98       C      0.182944666667     0.356093333333     0.966473666667     0          
99       C      0.189065666667     0.363431000000     0.910432000000     0          
100      C      0.200781000000     0.367589000000     0.890022666667     0          
101      C      0.203441000000     0.374618000000     0.833433666667     0          
102      C      0.193668333333     0.375545333333     0.811566333333     0          
103      C      0.193088333333     0.381893000000     0.755931666667     0          
104      C      0.182977000000     0.379461333333     0.719921000000     0          
105      C      0.185731000000     0.387599333333     0.667921333333     0          
106      C      0.197812333333     0.395957000000     0.666666666667     0          
107      S      0.205788000000     0.394165333333     0.725862000000     0          
108      S      0.181397000000     0.367927333333     0.860945666667     0          
109      C      0.182828666667     0.362068333333     0.688387000000     0          
110      C      0.177220000000     0.355269666667     0.741275000000     0          
111      N      0.171876666667     0.343199333333     0.742398333333     0          
112      C      0.171772000000     0.337061333333     0.689499666667     0          
113      C      0.166068333333     0.657742000000     0.691167000000     0          
114      N      0.160728333333     0.651777000000     0.745689000000     0          
115      C      0.155183000000     0.639698000000     0.747748666667     0          
116      C      0.154574333333     0.632726333333     0.696657333333     0          
117      S      0.147440333333     0.625615333333     0.867942666667     0          
118      S      0.138978666667     0.615809666667     0.715043000000     0          
119      H      0.138359000000     0.588677333333     0.995600333333     0          
120      H      0.151007000000     0.596985666667     0.768475666667     0          
121      H      0.169057666667     0.616352666667     0.824756000000     0          
122      H      0.175809000000     0.629750666667     0.928550333333     0          
123      H      0.171575666667     0.653009000000     0.870341333333     0          
124      H      0.181276333333     0.341291666667     0.867400000000     0          
125      H      0.207173000000     0.365734000000     0.914498666667     0          
126      H      0.212185000000     0.378757333333     0.809885666667     0          
127      H      0.173954333333     0.372099666667     0.729820666667     0          
128      H      0.179137000000     0.387232666667     0.967268666667     0          
129      H      0.187003333333     0.371783666667     0.690162333333     0          
130      H      0.176816333333     0.359401333333     0.785698000000     0          
131      H      0.151130333333     0.635713666667     0.793278333333     0          
132      H      0.149984333333     0.623013333333     0.700981000000     0          
133      C      0.063064333333     0.531218333333     0.666666666667     0          
134      C      0.070259000000     0.542840333333     0.686755333333     0          
135      C      0.065659333333     0.545100666667     0.744027333333     0          
136      C      0.055242333333     0.535078666667     0.765582666667     0          
137      C      0.048315000000     0.534386333333     0.821530333333     0          
138      C      0.046655666667     0.543485333333     0.846202000000     0          
139      C      0.039340666667     0.539927333333     0.902158333333     0          
140      C      0.035687000000     0.528214666667     0.919118333333     0          
141      C      0.028165333333     0.521292333333     0.973205666667     0          
142      C      0.015331666667     0.514484000000     0.969472000000     0          
143      C      0.008884333333     0.513708333333     0.913633666667     0          
144      C      0.329676666667     0.506875333333     0.911965000000     0          
145      C      0.323088666667     0.500575666667     0.966122666667     0          
146      C      0.310258000000     0.493433333333     0.966473666667     0          
147      C      0.302853666667     0.492200666667     0.910432000000     0          
148      C      0.298607333333     0.499666000000     0.890022666667     0          
149      C      0.291534000000     0.495313000000     0.833433666667     0          
150      C      0.290663000000     0.484716666667     0.811566333333     0          
151      C      0.284293666667     0.477834000000     0.755931666667     0          
152      C      0.286797000000     0.470240666667     0.719921000000     0          
153      C      0.278610000000     0.464879333333     0.667921333333     0          
154      C      0.270145000000     0.468533000000     0.666666666667     0          
155      S      0.271895000000     0.478209666667     0.725862000000     0          
156      S      0.298386666667     0.480140000000     0.860945666667     0          
157      C      0.304260000000     0.487380000000     0.688387000000     0          
158      C      0.311120000000     0.488584666667     0.741275000000     0          
159      N      0.323271333333     0.495291333333     0.742398333333     0          
160      C      0.329434000000     0.501288000000     0.689499666667     0          
161      C      0.008838666667     0.508216333333     0.691167000000     0          
162      N      0.014860000000     0.508858333333     0.745689000000     0          
163      C      0.027021333333     0.515373666667     0.747748666667     0          
164      C      0.034024000000     0.521699666667     0.696657333333     0          
165      S      0.041207333333     0.521704666667     0.867942666667     0          
166      S      0.051103666667     0.523073333333     0.715043000000     0          
167      H      0.078347333333     0.549425333333     0.995600333333     0          
168      H      0.069928666667     0.553689333333     0.768475666667     0          
169      H      0.050374000000     0.552311000000     0.824756000000     0          
170      H      0.036881000000     0.545678666667     0.928550333333     0          
171      H      0.013556666667     0.518372666667     0.870341333333     0          
172      H      0.325128666667     0.506492333333     0.867400000000     0          
173      H      0.300430333333     0.507837000000     0.914498666667     0          
174      H      0.287324666667     0.499855666667     0.809885666667     0          
175      H      0.294243333333     0.468625000000     0.729820666667     0          
176      H      0.279018666667     0.458715666667     0.967268666667     0          
177      H      0.294480333333     0.481857000000     0.690162333333     0          
178      H      0.306974333333     0.484078666667     0.785698000000     0          
179      H      0.031046333333     0.515321333333     0.793278333333     0          
180      H      0.043804000000     0.526809333333     0.700981000000     0          
1        C      0.123300000000     0.891433333333     0.333331666667     0          
2        O      0.133986666667     0.893304333333     0.333330333333     0          
3        C      0.113652000000     0.878930333333     0.333332666667     0          
4        C      0.115538666667     0.869714333333     0.000000000000     0          
5        N      0.127501000000     0.871869333333     0.000000000000     0          
6        C      0.101293333333     0.876711000000     0.000001000000     0          
7        O      0.092622000000     0.865934666667     0.000001666667     0          
8        C      0.098312666667     0.886326666667     0.000002000000     0          
9        C      0.086940000000     0.884006000000     0.000001666667     0          
10       N      0.077552333333     0.871745000000     0.000000000000     0          
11       C      0.108425666667     0.898729666667     0.000001333333     0          
12       O      0.106056333333     0.907045000000     0.000002333333     0          
13       C      0.120982666667     0.901506333333     0.333333000000     0          
14       C      0.129897333333     0.912821333333     0.333332666667     0          
15       N      0.128092000000     0.922865666667     0.000000000000     0          
16       H      0.108152333333     0.860742666667     0.000000333333     0          
17       H      0.084532666667     0.890893333333     0.000002666667     0          
18       H      0.138925333333     0.914437000000     0.333332333333     0          
19       C      0.210033333333     0.775233333333     0.333331666667     0          
20       O      0.199346666667     0.773362333333     0.333330333333     0          
21       C      0.219681333333     0.787736333333     0.333332666667     0          
22       C      0.217794666667     0.796952333333     0.000000000000     0          
23       N      0.205832333333     0.794797333333     0.000000000000     0          
24       C      0.232040000000     0.789955666667     0.000001000000     0          
25       O      0.240711333333     0.800732000000     0.000001666667     0          
26       C      0.235020666667     0.780340000000     0.000002000000     0          
27       C      0.246393333333     0.782660666667     0.000001666667     0          
28       N      0.255781000000     0.794921666667     0.000000000000     0          
29       C      0.224907666667     0.767937000000     0.000001333333     0          
30       O      0.227277000000     0.759621666667     0.000002333333     0          
31       C      0.212350666667     0.765160333333     0.333333000000     0          
32       C      0.203436000000     0.753845333333     0.333332666667     0          
33       N      0.205241333333     0.743801000000     0.000000000000     0          
34       H      0.225181000000     0.805924000000     0.000000333333     0          
35       H      0.248800666667     0.775773333333     0.000002666667     0          
36       H      0.194408000000     0.752229666667     0.333332333333     0          
37       C      0.134812000000     0.864676000000     0.000000000000     0          
38       C      0.123100000000     0.860248333333     0.020088666667     0          
39       C      0.120858666667     0.853448000000     0.077360666667     0          
40       C      0.130984666667     0.853096333333     0.098916000000     0          
41       C      0.131722000000     0.846926333333     0.154863666667     0          
42       C      0.122597000000     0.836240333333     0.179535333333     0          
43       C      0.126214333333     0.832535000000     0.235491666667     0          
44       C      0.137995666667     0.840559000000     0.252451666667     0          
45       C      0.144991666667     0.839992333333     0.306539000000     0          
46       C      0.151906000000     0.834054000000     0.302805333333     0          
47       C      0.152724333333     0.828442000000     0.246967000000     0          
48       C      0.159661333333     0.822818000000     0.245298333333     0          
49       C      0.166026333333     0.822557000000     0.299456000000     0          
50       C      0.173275666667     0.816953666667     0.299807000000     0          
51       C      0.174559000000     0.810849000000     0.243765333333     0          
52       C      0.167090000000     0.799225666667     0.223356000000     0          
53       C      0.171503666667     0.796549333333     0.166767000000     0          
54       C      0.182147333333     0.806218000000     0.144899666667     0          
55       C      0.189096333333     0.806753333333     0.089265000000     0          
56       C      0.196704666667     0.816778333333     0.053254333333     0          
57       C      0.202137666667     0.814001666667     0.001254666667     0          
58       C      0.198521333333     0.801990666667     0.000000000000     0          
59       S      0.188795666667     0.794105666667     0.059195333333     0          
60       S      0.186694666667     0.818413000000     0.194279000000     0          
61       C      0.179390000000     0.817032000000     0.021720333333     0          
62       C      0.178138333333     0.822626000000     0.074608333333     0          
63       N      0.171330666667     0.827989666667     0.075731666667     0          
64       C      0.165272333333     0.828131000000     0.022833000000     0          
65       C      0.158238333333     0.833855333333     0.024500333333     0          
66       N      0.157556666667     0.839178333333     0.079022333333     0          
67       C      0.150941000000     0.844742333333     0.081082000000     0          
68       C      0.144546666667     0.845387333333     0.029990666667     0          
69       S      0.144497666667     0.852493666667     0.201276000000     0          
70       S      0.143063000000     0.860930666667     0.048376333333     0          
71       H      0.116439000000     0.861710666667     0.328933666667     0          
72       H      0.112209666667     0.849138666667     0.101809000000     0          
73       H      0.113713666667     0.831150000000     0.158089333333     0          
74       H      0.120455333333     0.824384333333     0.261883666667     0          
75       H      0.148012666667     0.828432000000     0.203674666667     0          
76       H      0.160073666667     0.818696000000     0.200733333333     0          
77       H      0.158875333333     0.792909333333     0.247832000000     0          
78       H      0.166968666667     0.787867333333     0.143219000000     0          
79       H      0.198281000000     0.825755333333     0.063154000000     0          
80       H      0.208323000000     0.820532000000     0.300602000000     0          
81       H      0.184995000000     0.812839333333     0.023495666667     0          
82       H      0.182687666667     0.823000333333     0.119031333333     0          
83       H      0.150969000000     0.848778666667     0.126611666667     0          
84       H      0.139357000000     0.849991000000     0.034314333333     0          
85       C      0.135269000000     0.937252333333     0.000000000000     0          
86       C      0.139786333333     0.930058666667     0.020088666667     0          
87       C      0.146627333333     0.934598000000     0.077360666667     0          
88       C      0.146918333333     0.944972000000     0.098916000000     0          
89       C      0.153108333333     0.951834333333     0.154863666667     0          
90       C      0.163892666667     0.953421000000     0.179535333333     0          
91       C      0.167590666667     0.960684666667     0.235491666667     0          
92       C      0.159462333333     0.964373333333     0.252451666667     0          
93       C      0.159988333333     0.971862333333     0.306539000000     0          
94       C      0.165907666667     0.984609000000     0.302805333333     0          
95       C      0.171537000000     0.990996666667     0.246967000000     0          
96       C      0.177140666667     0.670120333333     0.245298333333     0          
97       C      0.177363333333     0.676680666667     0.299456000000     0          
98       C      0.182944666667     0.689426666667     0.299807000000     0          
99       C      0.189065666667     0.696764333333     0.243765333333     0          
100      C      0.200781000000     0.700922333333     0.223356000000     0          
101      C      0.203441000000     0.707951333333     0.166767000000     0          
102      C      0.193668333333     0.708878666667     0.144899666667     0          
103      C      0.193088333333     0.715226333333     0.089265000000     0          
104      C      0.182977000000     0.712794666667     0.053254333333     0          
105      C      0.185731000000     0.720932666667     0.001254666667     0          
106      C      0.197812333333     0.729290333333     0.000000000000     0          
107      S      0.205788000000     0.727498666667     0.059195333333     0          
108      S      0.181397000000     0.701260666667     0.194279000000     0          
109      C      0.182828666667     0.695401666667     0.021720333333     0          
110      C      0.177220000000     0.688603000000     0.074608333333     0          
111      N      0.171876666667     0.676532666667     0.075731666667     0          
112      C      0.171772000000     0.670394666667     0.022833000000     0          
113      C      0.166068333333     0.991075333333     0.024500333333     0          
114      N      0.160728333333     0.985110333333     0.079022333333     0          
115      C      0.155183000000     0.973031333333     0.081082000000     0          
116      C      0.154574333333     0.966059666667     0.029990666667     0          
117      S      0.147440333333     0.958948666667     0.201276000000     0          
118      S      0.138978666667     0.949143000000     0.048376333333     0          
119      H      0.138359000000     0.922010666667     0.328933666667     0          
120      H      0.151007000000     0.930319000000     0.101809000000     0          
121      H      0.169057666667     0.949686000000     0.158089333333     0          
122      H      0.175809000000     0.963084000000     0.261883666667     0          
123      H      0.171575666667     0.986342333333     0.203674666667     0          
124      H      0.181276333333     0.674625000000     0.200733333333     0          
125      H      0.207173000000     0.699067333333     0.247832000000     0          
126      H      0.212185000000     0.712090666667     0.143219000000     0          
127      H      0.173954333333     0.705433000000     0.063154000000     0          
128      H      0.179137000000     0.720566000000     0.300602000000     0          
129      H      0.187003333333     0.705117000000     0.023495666667     0          
130      H      0.176816333333     0.692734666667     0.119031333333     0          
131      H      0.151130333333     0.969047000000     0.126611666667     0          
132      H      0.149984333333     0.956346666667     0.034314333333     0          
133      C      0.063064333333     0.864551666667     0.000000000000     0          
134      C      0.070259000000     0.876173666667     0.020088666667     0          
135      C      0.065659333333     0.878434000000     0.077360666667     0          
136      C      0.055242333333     0.868412000000     0.098916000000     0          
137      C      0.048315000000     0.867719666667     0.154863666667     0          
138      C      0.046655666667     0.876818666667     0.179535333333     0          
139      C      0.039340666667     0.873260666667     0.235491666667     0          
140      C      0.035687000000     0.861548000000     0.252451666667     0          
141      C      0.028165333333     0.854625666667     0.306539000000     0          
142      C      0.015331666667     0.847817333333     0.302805333333     0          
143      C      0.008884333333     0.847041666667     0.246967000000     0          
144      C      0.329676666667     0.840208666667     0.245298333333     0          
145      C      0.323088666667     0.833909000000     0.299456000000     0          
146      C      0.310258000000     0.826766666667     0.299807000000     0          
147      C      0.302853666667     0.825534000000     0.243765333333     0          
148      C      0.298607333333     0.832999333333     0.223356000000     0          
149      C      0.291534000000     0.828646333333     0.166767000000     0          
150      C      0.290663000000     0.818050000000     0.144899666667     0          
151      C      0.284293666667     0.811167333333     0.089265000000     0          
152      C      0.286797000000     0.803574000000     0.053254333333     0          
153      C      0.278610000000     0.798212666667     0.001254666667     0          
154      C      0.270145000000     0.801866333333     0.000000000000     0          
155      S      0.271895000000     0.811543000000     0.059195333333     0          
156      S      0.298386666667     0.813473333333     0.194279000000     0          
157      C      0.304260000000     0.820713333333     0.021720333333     0          
158      C      0.311120000000     0.821918000000     0.074608333333     0          
159      N      0.323271333333     0.828624666667     0.075731666667     0          
160      C      0.329434000000     0.834621333333     0.022833000000     0          
161      C      0.008838666667     0.841549666667     0.024500333333     0          
162      N      0.014860000000     0.842191666667     0.079022333333     0          
163      C      0.027021333333     0.848707000000     0.081082000000     0          
164      C      0.034024000000     0.855033000000     0.029990666667     0          
165      S      0.041207333333     0.855038000000     0.201276000000     0          
166      S      0.051103666667     0.856406666667     0.048376333333     0          
167      H      0.078347333333     0.882758666667     0.328933666667     0          
168      H      0.069928666667     0.887022666667     0.101809000000     0          
169      H      0.050374000000     0.885644333333     0.158089333333     0          
170      H      0.036881000000     0.879012000000     0.261883666667     0          
171      H      0.013556666667     0.851706000000     0.203674666667     0          
172      H      0.325128666667     0.839825666667     0.200733333333     0          
173      H      0.300430333333     0.841170333333     0.247832000000     0          
174      H      0.287324666667     0.833189000000     0.143219000000     0          
175      H      0.294243333333     0.801958333333     0.063154000000     0          
176      H      0.279018666667     0.792049000000     0.300602000000     0          
177      H      0.294480333333     0.815190333333     0.023495666667     0          
178      H      0.306974333333     0.817412000000     0.119031333333     0          
179      H      0.031046333333     0.848654666667     0.126611666667     0          
180      H      0.043804000000     0.860142666667     0.034314333333     0          
1        C      0.123300000000     0.891433333333     0.666665000000     0          
2        O      0.133986666667     0.893304333333     0.666663666667     0          
3        C      0.113652000000     0.878930333333     0.666666000000     0          
4        C      0.115538666667     0.869714333333     0.333333333333     0          
5        N      0.127501000000     0.871869333333     0.333333333333     0          
6        C      0.101293333333     0.876711000000     0.333334333333     0          
7        O      0.092622000000     0.865934666667     0.333335000000     0          
8        C      0.098312666667     0.886326666667     0.333335333333     0          
9        C      0.086940000000     0.884006000000     0.333335000000     0          
10       N      0.077552333333     0.871745000000     0.333333333333     0          
11       C      0.108425666667     0.898729666667     0.333334666667     0          
12       O      0.106056333333     0.907045000000     0.333335666667     0          
13       C      0.120982666667     0.901506333333     0.666666333333     0          
14       C      0.129897333333     0.912821333333     0.666666000000     0          
15       N      0.128092000000     0.922865666667     0.333333333333     0          
16       H      0.108152333333     0.860742666667     0.333333666667     0          
17       H      0.084532666667     0.890893333333     0.333336000000     0          
18       H      0.138925333333     0.914437000000     0.666665666667     0          
19       C      0.210033333333     0.775233333333     0.666665000000     0          
20       O      0.199346666667     0.773362333333     0.666663666667     0          
21       C      0.219681333333     0.787736333333     0.666666000000     0          
22       C      0.217794666667     0.796952333333     0.333333333333     0          
23       N      0.205832333333     0.794797333333     0.333333333333     0          
24       C      0.232040000000     0.789955666667     0.333334333333     0          
25       O      0.240711333333     0.800732000000     0.333335000000     0          
26       C      0.235020666667     0.780340000000     0.333335333333     0          
27       C      0.246393333333     0.782660666667     0.333335000000     0          
28       N      0.255781000000     0.794921666667     0.333333333333     0          
29       C      0.224907666667     0.767937000000     0.333334666667     0          
30       O      0.227277000000     0.759621666667     0.333335666667     0          
31       C      0.212350666667     0.765160333333     0.666666333333     0          
32       C      0.203436000000     0.753845333333     0.666666000000     0          
33       N      0.205241333333     0.743801000000     0.333333333333     0          
34       H      0.225181000000     0.805924000000     0.333333666667     0          
35       H      0.248800666667     0.775773333333     0.333336000000     0          
36       H      0.194408000000     0.752229666667     0.666665666667     0          
37       C      0.134812000000     0.864676000000     0.333333333333     0          
38       C      0.123100000000     0.860248333333     0.353422000000     0          
39       C      0.120858666667     0.853448000000     0.410694000000     0          
40       C      0.130984666667     0.853096333333     0.432249333333     0          
41       C      0.131722000000     0.846926333333     0.488197000000     0          
42       C      0.122597000000     0.836240333333     0.512868666667     0          
43       C      0.126214333333     0.832535000000     0.568825000000     0          
44       C      0.137995666667     0.840559000000     0.585785000000     0          
45       C      0.144991666667     0.839992333333     0.639872333333     0          
46       C      0.151906000000     0.834054000000     0.636138666667     0          
47       C      0.152724333333     0.828442000000     0.580300333333     0          
48       C      0.159661333333     0.822818000000     0.578631666667     0          
49       C      0.166026333333     0.822557000000     0.632789333333     0          
50       C      0.173275666667     0.816953666667     0.633140333333     0          
51       C      0.174559000000     0.810849000000     0.577098666667     0          
52       C      0.167090000000     0.799225666667     0.556689333333     0          
53       C      0.171503666667     0.796549333333     0.500100333333     0          
54       C      0.182147333333     0.806218000000     0.478233000000     0          
55       C      0.189096333333     0.806753333333     0.422598333333     0          
56       C      0.196704666667     0.816778333333     0.386587666667     0          
57       C      0.202137666667     0.814001666667     0.334588000000     0          
58       C      0.198521333333     0.801990666667     0.333333333333     0          
59       S      0.188795666667     0.794105666667     0.392528666667     0          
60       S      0.186694666667     0.818413000000     0.527612333333     0          
61       C      0.179390000000     0.817032000000     0.355053666667     0          
62       C      0.178138333333     0.822626000000     0.407941666667     0          
63       N      0.171330666667     0.827989666667     0.409065000000     0          
64       C      0.165272333333     0.828131000000     0.356166333333     0          
65       C      0.158238333333     0.833855333333     0.357833666667     0          
66       N      0.157556666667     0.839178333333     0.412355666667     0          
67       C      0.150941000000     0.844742333333     0.414415333333     0          
68       C      0.144546666667     0.845387333333     0.363324000000     0          
69       S      0.144497666667     0.852493666667     0.534609333333     0          
70       S      0.143063000000     0.860930666667     0.381709666667     0          
71       H      0.116439000000     0.861710666667     0.662267000000     0          
72       H      0.112209666667     0.849138666667     0.435142333333     0          
73       H      0.113713666667     0.831150000000     0.491422666667     0          
74       H      0.120455333333     0.824384333333     0.595217000000     0          
75       H      0.148012666667     0.828432000000     0.537008000000     0          
76       H      0.160073666667     0.818696000000     0.534066666667     0          
77       H      0.158875333333     0.792909333333     0.581165333333     0          
78       H      0.166968666667     0.787867333333     0.476552333333     0          
79       H      0.198281000000     0.825755333333     0.396487333333     0          
80       H      0.208323000000     0.820532000000     0.633935333333     0          
81       H      0.184995000000     0.812839333333     0.356829000000     0          
82       H      0.182687666667     0.823000333333     0.452364666667     0          
83       H      0.150969000000     0.848778666667     0.459945000000     0          
84       H      0.139357000000     0.849991000000     0.367647666667     0          
85       C      0.135269000000     0.937252333333     0.333333333333     0          
86       C      0.139786333333     0.930058666667     0.353422000000     0          
87       C      0.146627333333     0.934598000000     0.410694000000     0          
88       C      0.146918333333     0.944972000000     0.432249333333     0          
89       C      0.153108333333     0.951834333333     0.488197000000     0          
90       C      0.163892666667     0.953421000000     0.512868666667     0          
91       C      0.167590666667     0.960684666667     0.568825000000     0          
92       C      0.159462333333     0.964373333333     0.585785000000     0          
93       C      0.159988333333     0.971862333333     0.639872333333     0          
94       C      0.165907666667     0.984609000000     0.636138666667     0          
95       C      0.171537000000     0.990996666667     0.580300333333     0          
96       C      0.177140666667     0.670120333333     0.578631666667     0          
97       C      0.177363333333     0.676680666667     0.632789333333     0          
98       C      0.182944666667     0.689426666667     0.633140333333     0          
99       C      0.189065666667     0.696764333333     0.577098666667     0          
100      C      0.200781000000     0.700922333333     0.556689333333     0          
101      C      0.203441000000     0.707951333333     0.500100333333     0          
102      C      0.193668333333     0.708878666667     0.478233000000     0          
103      C      0.193088333333     0.715226333333     0.422598333333     0          
104      C      0.182977000000     0.712794666667     0.386587666667     0          
105      C      0.185731000000     0.720932666667     0.334588000000     0          
106      C      0.197812333333     0.729290333333     0.333333333333     0          
107      S      0.205788000000     0.727498666667     0.392528666667     0          
108      S      0.181397000000     0.701260666667     0.527612333333     0          
109      C      0.182828666667     0.695401666667     0.355053666667     0          
110      C      0.177220000000     0.688603000000     0.407941666667     0          
111      N      0.171876666667     0.676532666667     0.409065000000     0          
112      C      0.171772000000     0.670394666667     0.356166333333     0          
113      C      0.166068333333     0.991075333333     0.357833666667     0          
114      N      0.160728333333     0.985110333333     0.412355666667     0          
115      C      0.155183000000     0.973031333333     0.414415333333     0          
116      C      0.154574333333     0.966059666667     0.363324000000     0          
117      S      0.147440333333     0.958948666667     0.534609333333     0          
118      S      0.138978666667     0.949143000000     0.381709666667     0          
119      H      0.138359000000     0.922010666667     0.662267000000     0          
120      H      0.151007000000     0.930319000000     0.435142333333     0          
121      H      0.169057666667     0.949686000000     0.491422666667     0          
122      H      0.175809000000     0.963084000000     0.595217000000     0          
123      H      0.171575666667     0.986342333333     0.537008000000     0          
124      H      0.181276333333     0.674625000000     0.534066666667     0          
125      H      0.207173000000     0.699067333333     0.581165333333     0          
126      H      0.212185000000     0.712090666667     0.476552333333     0          
127      H      0.173954333333     0.705433000000     0.396487333333     0          
128      H      0.179137000000     0.720566000000     0.633935333333     0          
129      H      0.187003333333     0.705117000000     0.356829000000     0          
130      H      0.176816333333     0.692734666667     0.452364666667     0          
131      H      0.151130333333     0.969047000000     0.459945000000     0          
132      H      0.149984333333     0.956346666667     0.367647666667     0          
133      C      0.063064333333     0.864551666667     0.333333333333     0          
134      C      0.070259000000     0.876173666667     0.353422000000     0          
135      C      0.065659333333     0.878434000000     0.410694000000     0          
136      C      0.055242333333     0.868412000000     0.432249333333     0          
137      C      0.048315000000     0.867719666667     0.488197000000     0          
138      C      0.046655666667     0.876818666667     0.512868666667     0          
139      C      0.039340666667     0.873260666667     0.568825000000     0          
140      C      0.035687000000     0.861548000000     0.585785000000     0          
141      C      0.028165333333     0.854625666667     0.639872333333     0          
142      C      0.015331666667     0.847817333333     0.636138666667     0          
143      C      0.008884333333     0.847041666667     0.580300333333     0          
144      C      0.329676666667     0.840208666667     0.578631666667     0          
145      C      0.323088666667     0.833909000000     0.632789333333     0          
146      C      0.310258000000     0.826766666667     0.633140333333     0          
147      C      0.302853666667     0.825534000000     0.577098666667     0          
148      C      0.298607333333     0.832999333333     0.556689333333     0          
149      C      0.291534000000     0.828646333333     0.500100333333     0          
150      C      0.290663000000     0.818050000000     0.478233000000     0          
151      C      0.284293666667     0.811167333333     0.422598333333     0          
152      C      0.286797000000     0.803574000000     0.386587666667     0          
153      C      0.278610000000     0.798212666667     0.334588000000     0          
154      C      0.270145000000     0.801866333333     0.333333333333     0          
155      S      0.271895000000     0.811543000000     0.392528666667     0          
156      S      0.298386666667     0.813473333333     0.527612333333     0          
157      C      0.304260000000     0.820713333333     0.355053666667     0          
158      C      0.311120000000     0.821918000000     0.407941666667     0          
159      N      0.323271333333     0.828624666667     0.409065000000     0          
160      C      0.329434000000     0.834621333333     0.356166333333     0          
161      C      0.008838666667     0.841549666667     0.357833666667     0          
162      N      0.014860000000     0.842191666667     0.412355666667     0          
163      C      0.027021333333     0.848707000000     0.414415333333     0          
164      C      0.034024000000     0.855033000000     0.363324000000     0          
165      S      0.041207333333     0.855038000000     0.534609333333     0          
166      S      0.051103666667     0.856406666667     0.381709666667     0          
167      H      0.078347333333     0.882758666667     0.662267000000     0          
168      H      0.069928666667     0.887022666667     0.435142333333     0          
169      H      0.050374000000     0.885644333333     0.491422666667     0          
170      H      0.036881000000     0.879012000000     0.595217000000     0          
171      H      0.013556666667     0.851706000000     0.537008000000     0          
172      H      0.325128666667     0.839825666667     0.534066666667     0          
173      H      0.300430333333     0.841170333333     0.581165333333     0          
174      H      0.287324666667     0.833189000000     0.476552333333     0          
175      H      0.294243333333     0.801958333333     0.396487333333     0          
176      H      0.279018666667     0.792049000000     0.633935333333     0          
177      H      0.294480333333     0.815190333333     0.356829000000     0          
178      H      0.306974333333     0.817412000000     0.452364666667     0          
179      H      0.031046333333     0.848654666667     0.459945000000     0          
180      H      0.043804000000     0.860142666667     0.367647666667     0          
1        C      0.123300000000     0.891433333333     0.999998333333     0          
2        O      0.133986666667     0.893304333333     0.999997000000     0          
3        C      0.113652000000     0.878930333333     0.999999333333     0          
4        C      0.115538666667     0.869714333333     0.666666666667     0          
5        N      0.127501000000     0.871869333333     0.666666666667     0          
6        C      0.101293333333     0.876711000000     0.666667666667     0          
7        O      0.092622000000     0.865934666667     0.666668333333     0          
8        C      0.098312666667     0.886326666667     0.666668666667     0          
9        C      0.086940000000     0.884006000000     0.666668333333     0          
10       N      0.077552333333     0.871745000000     0.666666666667     0          
11       C      0.108425666667     0.898729666667     0.666668000000     0          
12       O      0.106056333333     0.907045000000     0.666669000000     0          
13       C      0.120982666667     0.901506333333     0.999999666667     0          
14       C      0.129897333333     0.912821333333     0.999999333333     0          
15       N      0.128092000000     0.922865666667     0.666666666667     0          
16       H      0.108152333333     0.860742666667     0.666667000000     0          
17       H      0.084532666667     0.890893333333     0.666669333333     0          
18       H      0.138925333333     0.914437000000     0.999999000000     0          
19       C      0.210033333333     0.775233333333     0.999998333333     0          
20       O      0.199346666667     0.773362333333     0.999997000000     0          
21       C      0.219681333333     0.787736333333     0.999999333333     0          
22       C      0.217794666667     0.796952333333     0.666666666667     0          
23       N      0.205832333333     0.794797333333     0.666666666667     0          
24       C      0.232040000000     0.789955666667     0.666667666667     0          
25       O      0.240711333333     0.800732000000     0.666668333333     0          
26       C      0.235020666667     0.780340000000     0.666668666667     0          
27       C      0.246393333333     0.782660666667     0.666668333333     0          
28       N      0.255781000000     0.794921666667     0.666666666667     0          
29       C      0.224907666667     0.767937000000     0.666668000000     0          
30       O      0.227277000000     0.759621666667     0.666669000000     0          
31       C      0.212350666667     0.765160333333     0.999999666667     0          
32       C      0.203436000000     0.753845333333     0.999999333333     0          
33       N      0.205241333333     0.743801000000     0.666666666667     0          
34       H      0.225181000000     0.805924000000     0.666667000000     0          
35       H      0.248800666667     0.775773333333     0.666669333333     0          
36       H      0.194408000000     0.752229666667     0.999999000000     0          
37       C      0.134812000000     0.864676000000     0.666666666667     0          
38       C      0.123100000000     0.860248333333     0.686755333333     0          
39       C      0.120858666667     0.853448000000     0.744027333333     0          
40       C      0.130984666667     0.853096333333     0.765582666667     0          
41       C      0.131722000000     0.846926333333     0.821530333333     0          
42       C      0.122597000000     0.836240333333     0.846202000000     0          
43       C      0.126214333333     0.832535000000     0.902158333333     0          
44       C      0.137995666667     0.840559000000     0.919118333333     0          
45       C      0.144991666667     0.839992333333     0.973205666667     0          
46       C      0.151906000000     0.834054000000     0.969472000000     0          
47       C      0.152724333333     0.828442000000     0.913633666667     0          
48       C      0.159661333333     0.822818000000     0.911965000000     0          
49       C      0.166026333333     0.822557000000     0.966122666667     0          
50       C      0.173275666667     0.816953666667     0.966473666667     0          
51       C      0.174559000000     0.810849000000     0.910432000000     0          
52       C      0.167090000000     0.799225666667     0.890022666667     0          
53       C      0.171503666667     0.796549333333     0.833433666667     0          
54       C      0.182147333333     0.806218000000     0.811566333333     0          
55       C      0.189096333333     0.806753333333     0.755931666667     0          
56       C      0.196704666667     0.816778333333     0.719921000000     0          
57       C      0.202137666667     0.814001666667     0.667921333333     0          
58       C      0.198521333333     0.801990666667     0.666666666667     0          
59       S      0.188795666667     0.794105666667     0.725862000000     0          
60       S      0.186694666667     0.818413000000     0.860945666667     0          
61       C      0.179390000000     0.817032000000     0.688387000000     0          
62       C      0.178138333333     0.822626000000     0.741275000000     0          
63       N      0.171330666667     0.827989666667     0.742398333333     0          
64       C      0.165272333333     0.828131000000     0.689499666667     0          
65       C      0.158238333333     0.833855333333     0.691167000000     0          
66       N      0.157556666667     0.839178333333     0.745689000000     0          
67       C      0.150941000000     0.844742333333     0.747748666667     0          
68       C      0.144546666667     0.845387333333     0.696657333333     0          
69       S      0.144497666667     0.852493666667     0.867942666667     0          
70       S      0.143063000000     0.860930666667     0.715043000000     0          
71       H      0.116439000000     0.861710666667     0.995600333333     0          
72       H      0.112209666667     0.849138666667     0.768475666667     0          
73       H      0.113713666667     0.831150000000     0.824756000000     0          
74       H      0.120455333333     0.824384333333     0.928550333333     0          
75       H      0.148012666667     0.828432000000     0.870341333333     0          
76       H      0.160073666667     0.818696000000     0.867400000000     0          
77       H      0.158875333333     0.792909333333     0.914498666667     0          
78       H      0.166968666667     0.787867333333     0.809885666667     0          
79       H      0.198281000000     0.825755333333     0.729820666667     0          
80       H      0.208323000000     0.820532000000     0.967268666667     0          
81       H      0.184995000000     0.812839333333     0.690162333333     0          
82       H      0.182687666667     0.823000333333     0.785698000000     0          
83       H      0.150969000000     0.848778666667     0.793278333333     0          
84       H      0.139357000000     0.849991000000     0.700981000000     0          
85       C      0.135269000000     0.937252333333     0.666666666667     0          
86       C      0.139786333333     0.930058666667     0.686755333333     0          
87       C      0.146627333333     0.934598000000     0.744027333333     0          
88       C      0.146918333333     0.944972000000     0.765582666667     0          
89       C      0.153108333333     0.951834333333     0.821530333333     0          
90       C      0.163892666667     0.953421000000     0.846202000000     0          
91       C      0.167590666667     0.960684666667     0.902158333333     0          
92       C      0.159462333333     0.964373333333     0.919118333333     0          
93       C      0.159988333333     0.971862333333     0.973205666667     0          
94       C      0.165907666667     0.984609000000     0.969472000000     0          
95       C      0.171537000000     0.990996666667     0.913633666667     0          
96       C      0.177140666667     0.670120333333     0.911965000000     0          
97       C      0.177363333333     0.676680666667     0.966122666667     0          
98       C      0.182944666667     0.689426666667     0.966473666667     0          
99       C      0.189065666667     0.696764333333     0.910432000000     0          
100      C      0.200781000000     0.700922333333     0.890022666667     0          
101      C      0.203441000000     0.707951333333     0.833433666667     0          
102      C      0.193668333333     0.708878666667     0.811566333333     0          
103      C      0.193088333333     0.715226333333     0.755931666667     0          
104      C      0.182977000000     0.712794666667     0.719921000000     0          
105      C      0.185731000000     0.720932666667     0.667921333333     0          
106      C      0.197812333333     0.729290333333     0.666666666667     0          
107      S      0.205788000000     0.727498666667     0.725862000000     0          
108      S      0.181397000000     0.701260666667     0.860945666667     0          
109      C      0.182828666667     0.695401666667     0.688387000000     0          
110      C      0.177220000000     0.688603000000     0.741275000000     0          
111      N      0.171876666667     0.676532666667     0.742398333333     0          
112      C      0.171772000000     0.670394666667     0.689499666667     0          
113      C      0.166068333333     0.991075333333     0.691167000000     0          
114      N      0.160728333333     0.985110333333     0.745689000000     0          
115      C      0.155183000000     0.973031333333     0.747748666667     0          
116      C      0.154574333333     0.966059666667     0.696657333333     0          
117      S      0.147440333333     0.958948666667     0.867942666667     0          
118      S      0.138978666667     0.949143000000     0.715043000000     0          
119      H      0.138359000000     0.922010666667     0.995600333333     0          
120      H      0.151007000000     0.930319000000     0.768475666667     0          
121      H      0.169057666667     0.949686000000     0.824756000000     0          
122      H      0.175809000000     0.963084000000     0.928550333333     0          
123      H      0.171575666667     0.986342333333     0.870341333333     0          
124      H      0.181276333333     0.674625000000     0.867400000000     0          
125      H      0.207173000000     0.699067333333     0.914498666667     0          
126      H      0.212185000000     0.712090666667     0.809885666667     0          
127      H      0.173954333333     0.705433000000     0.729820666667     0          
128      H      0.179137000000     0.720566000000     0.967268666667     0          
129      H      0.187003333333     0.705117000000     0.690162333333     0          
130      H      0.176816333333     0.692734666667     0.785698000000     0          
131      H      0.151130333333     0.969047000000     0.793278333333     0          
132      H      0.149984333333     0.956346666667     0.700981000000     0          
133      C      0.063064333333     0.864551666667     0.666666666667     0          
134      C      0.070259000000     0.876173666667     0.686755333333     0          
135      C      0.065659333333     0.878434000000     0.744027333333     0          
136      C      0.055242333333     0.868412000000     0.765582666667     0          
137      C      0.048315000000     0.867719666667     0.821530333333     0          
138      C      0.046655666667     0.876818666667     0.846202000000     0          
139      C      0.039340666667     0.873260666667     0.902158333333     0          
140      C      0.035687000000     0.861548000000     0.919118333333     0          
141      C      0.028165333333     0.854625666667     0.973205666667     0          
142      C      0.015331666667     0.847817333333     0.969472000000     0          
143      C      0.008884333333     0.847041666667     0.913633666667     0          
144      C      0.329676666667     0.840208666667     0.911965000000     0          
145      C      0.323088666667     0.833909000000     0.966122666667     0          
146      C      0.310258000000     0.826766666667     0.966473666667     0          
147      C      0.302853666667     0.825534000000     0.910432000000     0          
148      C      0.298607333333     0.832999333333     0.890022666667     0          
149      C      0.291534000000     0.828646333333     0.833433666667     0          
150      C      0.290663000000     0.818050000000     0.811566333333     0          
151      C      0.284293666667     0.811167333333     0.755931666667     0          
152      C      0.286797000000     0.803574000000     0.719921000000     0          
153      C      0.278610000000     0.798212666667     0.667921333333     0          
154      C      0.270145000000     0.801866333333     0.666666666667     0          
155      S      0.271895000000     0.811543000000     0.725862000000     0          
156      S      0.298386666667     0.813473333333     0.860945666667     0          
157      C      0.304260000000     0.820713333333     0.688387000000     0          
158      C      0.311120000000     0.821918000000     0.741275000000     0          
159      N      0.323271333333     0.828624666667     0.742398333333     0          
160      C      0.329434000000     0.834621333333     0.689499666667     0          
161      C      0.008838666667     0.841549666667     0.691167000000     0          
162      N      0.014860000000     0.842191666667     0.745689000000     0          
163      C      0.027021333333     0.848707000000     0.747748666667     0          
164      C      0.034024000000     0.855033000000     0.696657333333     0          
165      S      0.041207333333     0.855038000000     0.867942666667     0          
166      S      0.051103666667     0.856406666667     0.715043000000     0          
167      H      0.078347333333     0.882758666667     0.995600333333     0          
168      H      0.069928666667     0.887022666667     0.768475666667     0          
169      H      0.050374000000     0.885644333333     0.824756000000     0          
170      H      0.036881000000     0.879012000000     0.928550333333     0          
171      H      0.013556666667     0.851706000000     0.870341333333     0          
172      H      0.325128666667     0.839825666667     0.867400000000     0          
173      H      0.300430333333     0.841170333333     0.914498666667     0          
174      H      0.287324666667     0.833189000000     0.809885666667     0          
175      H      0.294243333333     0.801958333333     0.729820666667     0          
176      H      0.279018666667     0.792049000000     0.967268666667     0          
177      H      0.294480333333     0.815190333333     0.690162333333     0          
178      H      0.306974333333     0.817412000000     0.785698000000     0          
179      H      0.031046333333     0.848654666667     0.793278333333     0          
180      H      0.043804000000     0.860142666667     0.700981000000     0          
1        C      0.456633333333     0.224766666667     0.333331666667     0          
2        O      0.467320000000     0.226637666667     0.333330333333     0          
3        C      0.446985333333     0.212263666667     0.333332666667     0          
4        C      0.448872000000     0.203047666667     0.000000000000     0          
5        N      0.460834333333     0.205202666667     0.000000000000     0          
6        C      0.434626666667     0.210044333333     0.000001000000     0          
7        O      0.425955333333     0.199268000000     0.000001666667     0          
8        C      0.431646000000     0.219660000000     0.000002000000     0          
9        C      0.420273333333     0.217339333333     0.000001666667     0          
10       N      0.410885666667     0.205078333333     0.000000000000     0          
11       C      0.441759000000     0.232063000000     0.000001333333     0          
12       O      0.439389666667     0.240378333333     0.000002333333     0          
13       C      0.454316000000     0.234839666667     0.333333000000     0          
14       C      0.463230666667     0.246154666667     0.333332666667     0          
15       N      0.461425333333     0.256199000000     0.000000000000     0          
16       H      0.441485666667     0.194076000000     0.000000333333     0          
17       H      0.417866000000     0.224226666667     0.000002666667     0          
18       H      0.472258666667     0.247770333333     0.333332333333     0          
19       C      0.543366666667     0.108566666667     0.333331666667     0          
20       O      0.532680000000     0.106695666667     0.333330333333     0          
21       C      0.553014666667     0.121069666667     0.333332666667     0          
22       C      0.551128000000     0.130285666667     0.000000000000     0          
23       N      0.539165666667     0.128130666667     0.000000000000     0          
24       C      0.565373333333     0.123289000000     0.000001000000     0          
25       O      0.574044666667     0.134065333333     0.000001666667     0          
26       C      0.568354000000     0.113673333333     0.000002000000     0          
27       C      0.579726666667     0.115994000000     0.000001666667     0          
28       N      0.589114333333     0.128255000000     0.000000000000     0          
29       C      0.558241000000     0.101270333333     0.000001333333     0          
30       O      0.560610333333     0.092955000000     0.000002333333     0          
31       C      0.545684000000     0.098493666667     0.333333000000     0          
32       C      0.536769333333     0.087178666667     0.333332666667     0          
33       N      0.538574666667     0.077134333333     0.000000000000     0          
34       H      0.558514333333     0.139257333333     0.000000333333     0          
35       H      0.582134000000     0.109106666667     0.000002666667     0          
36       H      0.527741333333     0.085563000000     0.333332333333     0          
37       C      0.468145333333     0.198009333333     0.000000000000     0          
38       C      0.456433333333     0.193581666667     0.020088666667     0          
39       C      0.454192000000     0.186781333333     0.077360666667     0          
40       C      0.464318000000     0.186429666667     0.098916000000     0          
41       C      0.465055333333     0.180259666667     0.154863666667     0          
42       C      0.455930333333     0.169573666667     0.179535333333     0          
43       C      0.459547666667     0.165868333333     0.235491666667     0          
44       C      0.471329000000     0.173892333333     0.252451666667     0          
45       C      0.478325000000     0.173325666667     0.306539000000     0          
46       C      0.485239333333     0.167387333333     0.302805333333     0          
47       C      0.486057666667     0.161775333333     0.246967000000     0          
48       C      0.492994666667     0.156151333333     0.245298333333     0          
49       C      0.499359666667     0.155890333333     0.299456000000     0          
50       C      0.506609000000     0.150287000000     0.299807000000     0          
51       C      0.507892333333     0.144182333333     0.243765333333     0          
52       C      0.500423333333     0.132559000000     0.223356000000     0          
53       C      0.504837000000     0.129882666667     0.166767000000     0          
54       C      0.515480666667     0.139551333333     0.144899666667     0          
55       C      0.522429666667     0.140086666667     0.089265000000     0          
56       C      0.530038000000     0.150111666667     0.053254333333     0          
57       C      0.535471000000     0.147335000000     0.001254666667     0          
58       C      0.531854666667     0.135324000000     0.000000000000     0          
59       S      0.522129000000     0.127439000000     0.059195333333     0          
60       S      0.520028000000     0.151746333333     0.194279000000     0          
61       C      0.512723333333     0.150365333333     0.021720333333     0          
62       C      0.511471666667     0.155959333333     0.074608333333     0          
63       N      0.504664000000     0.161323000000     0.075731666667     0          
64       C      0.498605666667     0.161464333333     0.022833000000     0          
65       C      0.491571666667     0.167188666667     0.024500333333     0          
66       N      0.490890000000     0.172511666667     0.079022333333     0          
67       C      0.484274333333     0.178075666667     0.081082000000     0          
68       C      0.477880000000     0.178720666667     0.029990666667     0          
69       S      0.477831000000     0.185827000000     0.201276000000     0          
70       S      0.476396333333     0.194264000000     0.048376333333     0          
71       H      0.449772333333     0.195044000000     0.328933666667     0          
72       H      0.445543000000     0.182472000000     0.101809000000     0          
73       H      0.447047000000     0.164483333333     0.158089333333     0          
74       H      0.453788666667     0.157717666667     0.261883666667     0          
75       H      0.481346000000     0.161765333333     0.203674666667     0          
76       H      0.493407000000     0.152029333333     0.200733333333     0          
77       H      0.492208666667     0.126242666667     0.247832000000     0          
78       H      0.500302000000     0.121200666667     0.143219000000     0          
79       H      0.531614333333     0.159088666667     0.063154000000     0          
80       H      0.541656333333     0.153865333333     0.300602000000     0          
81       H      0.518328333333     0.146172666667     0.023495666667     0          
82       H      0.516021000000     0.156333666667     0.119031333333     0          
83       H      0.484302333333     0.182112000000     0.126611666667     0          
84       H      0.472690333333     0.183324333333     0.034314333333     0          
85       C      0.468602333333     0.270585666667     0.000000000000     0          
86       C      0.473119666667     0.263392000000     0.020088666667     0          
87       C      0.479960666667     0.267931333333     0.077360666667     0          
88       C      0.480251666667     0.278305333333     0.098916000000     0          
89       C      0.486441666667     0.285167666667     0.154863666667     0          
90       C      0.497226000000     0.286754333333     0.179535333333     0          
91       C      0.500924000000     0.294018000000     0.235491666667     0          
92       C      0.492795666667     0.297706666667     0.252451666667     0          
93       C      0.493321666667     0.305195666667     0.306539000000     0          
94       C      0.499241000000     0.317942333333     0.302805333333     0          
95       C      0.504870333333     0.324330000000     0.246967000000     0          
96       C      0.510474000000     0.003453666667     0.245298333333     0          
97       C      0.510696666667     0.010014000000     0.299456000000     0          
98       C      0.516278000000     0.022760000000     0.299807000000     0          
99       C      0.522399000000     0.030097666667     0.243765333333     0          
100      C      0.534114333333     0.034255666667     0.223356000000     0          
101      C      0.536774333333     0.041284666667     0.166767000000     0          
102      C      0.527001666667     0.042212000000     0.144899666667     0          
103      C      0.526421666667     0.048559666667     0.089265000000     0          
104      C      0.516310333333     0.046128000000     0.053254333333     0          
105      C      0.519064333333     0.054266000000     0.001254666667     0          
106      C      0.531145666667     0.062623666667     0.000000000000     0          
107      S      0.539121333333     0.060832000000     0.059195333333     0          
108      S      0.514730333333     0.034594000000     0.194279000000     0          
109      C      0.516162000000     0.028735000000     0.021720333333     0          
110      C      0.510553333333     0.021936333333     0.074608333333     0          
111      N      0.505210000000     0.009866000000     0.075731666667     0          
112      C      0.505105333333     0.003728000000     0.022833000000     0          
113      C      0.499401666667     0.324408666667     0.024500333333     0          
114      N      0.494061666667     0.318443666667     0.079022333333     0          
115      C      0.488516333333     0.306364666667     0.081082000000     0          
116      C      0.487907666667     0.299393000000     0.029990666667     0          
117      S      0.480773666667     0.292282000000     0.201276000000     0          
118      S      0.472312000000     0.282476333333     0.048376333333     0          
119      H      0.471692333333     0.255344000000     0.328933666667     0          
120      H      0.484340333333     0.263652333333     0.101809000000     0          
121      H      0.502391000000     0.283019333333     0.158089333333     0          
122      H      0.509142333333     0.296417333333     0.261883666667     0          
123      H      0.504909000000     0.319675666667     0.203674666667     0          
124      H      0.514609666667     0.007958333333     0.200733333333     0          
125      H      0.540506333333     0.032400666667     0.247832000000     0          
126      H      0.545518333333     0.045424000000     0.143219000000     0          
127      H      0.507287666667     0.038766333333     0.063154000000     0          
128      H      0.512470333333     0.053899333333     0.300602000000     0          
129      H      0.520336666667     0.038450333333     0.023495666667     0          
130      H      0.510149666667     0.026068000000     0.119031333333     0          
131      H      0.484463666667     0.302380333333     0.126611666667     0          
132      H      0.483317666667     0.289680000000     0.034314333333     0          
133      C      0.396397666667     0.197885000000     0.000000000000     0          
134      C      0.403592333333     0.209507000000     0.020088666667     0          
135      C      0.398992666667     0.211767333333     0.077360666667     0          
136      C      0.388575666667     0.201745333333     0.098916000000     0          
137      C      0.381648333333     0.201053000000     0.154863666667     0          
138      C      0.379989000000     0.210152000000     0.179535333333     0          
139      C      0.372674000000     0.206594000000     0.235491666667     0          
140      C      0.369020333333     0.194881333333     0.252451666667     0          
141      C      0.361498666667     0.187959000000     0.306539000000     0          
142      C      0.348665000000     0.181150666667     0.302805333333     0          
143      C      0.342217666667     0.180375000000     0.246967000000     0          
144      C      0.663010000000     0.173542000000     0.245298333333     0          
145      C      0.656422000000     0.167242333333     0.299456000000     0          
146      C      0.643591333333     0.160100000000     0.299807000000     0          
147      C      0.636187000000     0.158867333333     0.243765333333     0          
148      C      0.631940666667     0.166332666667     0.223356000000     0          
149      C      0.624867333333     0.161979666667     0.166767000000     0          
150      C      0.623996333333     0.151383333333     0.144899666667     0          
151      C      0.617627000000     0.144500666667     0.089265000000     0          
152      C      0.620130333333     0.136907333333     0.053254333333     0          
153      C      0.611943333333     0.131546000000     0.001254666667     0          
154      C      0.603478333333     0.135199666667     0.000000000000     0          
155      S      0.605228333333     0.144876333333     0.059195333333     0          
156      S      0.631720000000     0.146806666667     0.194279000000     0          
157      C      0.637593333333     0.154046666667     0.021720333333     0          
158      C      0.644453333333     0.155251333333     0.074608333333     0          
159      N      0.656604666667     0.161958000000     0.075731666667     0          
160      C      0.662767333333     0.167954666667     0.022833000000     0          
161      C      0.342172000000     0.174883000000     0.024500333333     0          
162      N      0.348193333333     0.175525000000     0.079022333333     0          
163      C      0.360354666667     0.182040333333     0.081082000000     0          
164      C      0.367357333333     0.188366333333     0.029990666667     0          
165      S      0.374540666667     0.188371333333     0.201276000000     0          
166      S      0.384437000000     0.189740000000     0.048376333333     0          
167      H      0.411680666667     0.216092000000     0.328933666667     0          
168      H      0.403262000000     0.220356000000     0.101809000000     0          
169      H      0.383707333333     0.218977666667     0.158089333333     0          
170      H      0.370214333333     0.212345333333     0.261883666667     0          
171      H      0.346890000000     0.185039333333     0.203674666667     0          
172      H      0.658462000000     0.173159000000     0.200733333333     0          
173      H      0.633763666667     0.174503666667     0.247832000000     0          
174      H      0.620658000000     0.166522333333     0.143219000000     0          
175      H      0.627576666667     0.135291666667     0.063154000000     0          
176      H      0.612352000000     0.125382333333     0.300602000000     0          
177      H      0.627813666667     0.148523666667     0.023495666667     0          
178      H      0.640307666667     0.150745333333     0.119031333333     0          
179      H      0.364379666667     0.181988000000     0.126611666667     0          
180      H      0.377137333333     0.193476000000     0.034314333333     0          
1        C      0.456633333333     0.224766666667     0.666665000000     0          
2        O      0.467320000000     0.226637666667     0.666663666667     0          
3        C      0.446985333333     0.212263666667     0.666666000000     0          
4        C      0.448872000000     0.203047666667     0.333333333333     0          
5        N      0.460834333333     0.205202666667     0.333333333333     0          
6        C      0.434626666667     0.210044333333     0.333334333333     0          
7        O      0.425955333333     0.199268000000     0.333335000000     0          
8        C      0.431646000000     0.219660000000     0.333335333333     0          
9        C      0.420273333333     0.217339333333     0.333335000000     0          
10       N      0.410885666667     0.205078333333     0.333333333333     0          
11       C      0.441759000000     0.232063000000     0.333334666667     0          
12       O      0.439389666667     0.240378333333     0.333335666667     0          
13       C      0.454316000000     0.234839666667     0.666666333333     0          
14       C      0.463230666667     0.246154666667     0.666666000000     0          
15       N      0.461425333333     0.256199000000     0.333333333333     0          
16       H      0.441485666667     0.194076000000     0.333333666667     0          
17       H      0.417866000000     0.224226666667     0.333336000000     0          
18       H      0.472258666667     0.247770333333     0.666665666667     0          
19       C      0.543366666667     0.108566666667     0.666665000000     0          
20       O      0.532680000000     0.106695666667     0.666663666667     0          
21       C      0.553014666667     0.121069666667     0.666666000000     0          
22       C      0.551128000000     0.130285666667     0.333333333333     0          
23       N      0.539165666667     0.128130666667     0.333333333333     0          
24       C      0.565373333333     0.123289000000     0.333334333333     0          
25       O      0.574044666667     0.134065333333     0.333335000000     0          
26       C      0.568354000000     0.113673333333     0.333335333333     0          
27       C      0.579726666667     0.115994000000     0.333335000000     0          
28       N      0.589114333333     0.128255000000     0.333333333333     0          
29       C      0.558241000000     0.101270333333     0.333334666667     0          
30       O      0.560610333333     0.092955000000     0.333335666667     0          
31       C      0.545684000000     0.098493666667     0.666666333333     0          
32       C      0.536769333333     0.087178666667     0.666666000000     0          
33       N      0.538574666667     0.077134333333     0.333333333333     0          
34       H      0.558514333333     0.139257333333     0.333333666667     0          
35       H      0.582134000000     0.109106666667     0.333336000000     0          
36       H      0.527741333333     0.085563000000     0.666665666667     0          
37       C      0.468145333333     0.198009333333     0.333333333333     0          
38       C      0.456433333333     0.193581666667     0.353422000000     0          
39       C      0.454192000000     0.186781333333     0.410694000000     0          
40       C      0.464318000000     0.186429666667     0.432249333333     0          
41       C      0.465055333333     0.180259666667     0.488197000000     0          
42       C      0.455930333333     0.169573666667     0.512868666667     0          
43       C      0.459547666667     0.165868333333     0.568825000000     0          
44       C      0.471329000000     0.173892333333     0.585785000000     0          
45       C      0.478325000000     0.173325666667     0.639872333333     0          
46       C      0.485239333333     0.167387333333     0.636138666667     0          
47       C      0.486057666667     0.161775333333     0.580300333333     0          
48       C      0.492994666667     0.156151333333     0.578631666667     0          
49       C      0.499359666667     0.155890333333     0.632789333333     0          
50       C      0.506609000000     0.150287000000     0.633140333333     0          
51       C      0.507892333333     0.144182333333     0.577098666667     0          
52       C      0.500423333333     0.132559000000     0.556689333333     0          
53       C      0.504837000000     0.129882666667     0.500100333333     0          
54       C      0.515480666667     0.139551333333     0.478233000000     0          
55       C      0.522429666667     0.140086666667     0.422598333333     0          
56       C      0.530038000000     0.150111666667     0.386587666667     0          
57       C      0.535471000000     0.147335000000     0.334588000000     0          
58       C      0.531854666667     0.135324000000     0.333333333333     0          
59       S      0.522129000000     0.127439000000     0.392528666667     0          
60       S      0.520028000000     0.151746333333     0.527612333333     0          
61       C      0.512723333333     0.150365333333     0.355053666667     0          
62       C      0.511471666667     0.155959333333     0.407941666667     0          
63       N      0.504664000000     0.161323000000     0.409065000000     0          
64       C      0.498605666667     0.161464333333     0.356166333333     0          
65       C      0.491571666667     0.167188666667     0.357833666667     0          
66       N      0.490890000000     0.172511666667     0.412355666667     0          
67       C      0.484274333333     0.178075666667     0.414415333333     0          
68       C      0.477880000000     0.178720666667     0.363324000000     0          
69       S      0.477831000000     0.185827000000     0.534609333333     0          
70       S      0.476396333333     0.194264000000     0.381709666667     0          
71       H      0.449772333333     0.195044000000     0.662267000000     0          
72       H      0.445543000000     0.182472000000     0.435142333333     0          
73       H      0.447047000000     0.164483333333     0.491422666667     0          
74       H      0.453788666667     0.157717666667     0.595217000000     0          
75       H      0.481346000000     0.161765333333     0.537008000000     0          
76       H      0.493407000000     0.152029333333     0.534066666667     0          
77       H      0.492208666667     0.126242666667     0.581165333333     0          
78       H      0.500302000000     0.121200666667     0.476552333333     0          
79       H      0.531614333333     0.159088666667     0.396487333333     0          
80       H      0.541656333333     0.153865333333     0.633935333333     0          
81       H      0.518328333333     0.146172666667     0.356829000000     0          
82       H      0.516021000000     0.156333666667     0.452364666667     0          
83       H      0.484302333333     0.182112000000     0.459945000000     0          
84       H      0.472690333333     0.183324333333     0.367647666667     0          
85       C      0.468602333333     0.270585666667     0.333333333333     0          
86       C      0.473119666667     0.263392000000     0.353422000000     0          
87       C      0.479960666667     0.267931333333     0.410694000000     0          
88       C      0.480251666667     0.278305333333     0.432249333333     0          
89       C      0.486441666667     0.285167666667     0.488197000000     0          
90       C      0.497226000000     0.286754333333     0.512868666667     0          
91       C      0.500924000000     0.294018000000     0.568825000000     0          
92       C      0.492795666667     0.297706666667     0.585785000000     0          
93       C      0.493321666667     0.305195666667     0.639872333333     0          
94       C      0.499241000000     0.317942333333     0.636138666667     0          
95       C      0.504870333333     0.324330000000     0.580300333333     0          
96       C      0.510474000000     0.003453666667     0.578631666667     0          
97       C      0.510696666667     0.010014000000     0.632789333333     0          
98       C      0.516278000000     0.022760000000     0.633140333333     0          
99       C      0.522399000000     0.030097666667     0.577098666667     0          
100      C      0.534114333333     0.034255666667     0.556689333333     0          
101      C      0.536774333333     0.041284666667     0.500100333333     0          
102      C      0.527001666667     0.042212000000     0.478233000000     0          
103      C      0.526421666667     0.048559666667     0.422598333333     0          
104      C      0.516310333333     0.046128000000     0.386587666667     0          
105      C      0.519064333333     0.054266000000     0.334588000000     0          
106      C      0.531145666667     0.062623666667     0.333333333333     0          
107      S      0.539121333333     0.060832000000     0.392528666667     0          
108      S      0.514730333333     0.034594000000     0.527612333333     0          
109      C      0.516162000000     0.028735000000     0.355053666667     0          
110      C      0.510553333333     0.021936333333     0.407941666667     0          
111      N      0.505210000000     0.009866000000     0.409065000000     0          
112      C      0.505105333333     0.003728000000     0.356166333333     0          
113      C      0.499401666667     0.324408666667     0.357833666667     0          
114      N      0.494061666667     0.318443666667     0.412355666667     0          
115      C      0.488516333333     0.306364666667     0.414415333333     0          
116      C      0.487907666667     0.299393000000     0.363324000000     0          
117      S      0.480773666667     0.292282000000     0.534609333333     0          
118      S      0.472312000000     0.282476333333     0.381709666667     0          
119      H      0.471692333333     0.255344000000     0.662267000000     0          
120      H      0.484340333333     0.263652333333     0.435142333333     0          
121      H      0.502391000000     0.283019333333     0.491422666667     0          
122      H      0.509142333333     0.296417333333     0.595217000000     0          
123      H      0.504909000000     0.319675666667     0.537008000000     0          
124      H      0.514609666667     0.007958333333     0.534066666667     0          
125      H      0.540506333333     0.032400666667     0.581165333333     0          
126      H      0.545518333333     0.045424000000     0.476552333333     0          
127      H      0.507287666667     0.038766333333     0.396487333333     0          
128      H      0.512470333333     0.053899333333     0.633935333333     0          
129      H      0.520336666667     0.038450333333     0.356829000000     0          
130      H      0.510149666667     0.026068000000     0.452364666667     0          
131      H      0.484463666667     0.302380333333     0.459945000000     0          
132      H      0.483317666667     0.289680000000     0.367647666667     0          
133      C      0.396397666667     0.197885000000     0.333333333333     0          
134      C      0.403592333333     0.209507000000     0.353422000000     0          
135      C      0.398992666667     0.211767333333     0.410694000000     0          
136      C      0.388575666667     0.201745333333     0.432249333333     0          
137      C      0.381648333333     0.201053000000     0.488197000000     0          
138      C      0.379989000000     0.210152000000     0.512868666667     0          
139      C      0.372674000000     0.206594000000     0.568825000000     0          
140      C      0.369020333333     0.194881333333     0.585785000000     0          
141      C      0.361498666667     0.187959000000     0.639872333333     0          
142      C      0.348665000000     0.181150666667     0.636138666667     0          
143      C      0.342217666667     0.180375000000     0.580300333333     0          
144      C      0.663010000000     0.173542000000     0.578631666667     0          
145      C      0.656422000000     0.167242333333     0.632789333333     0          
146      C      0.643591333333     0.160100000000     0.633140333333     0          
147      C      0.636187000000     0.158867333333     0.577098666667     0          
148      C      0.631940666667     0.166332666667     0.556689333333     0          
149      C      0.624867333333     0.161979666667     0.500100333333     0          
150      C      0.623996333333     0.151383333333     0.478233000000     0          
151      C      0.617627000000     0.144500666667     0.422598333333     0          
152      C      0.620130333333     0.136907333333     0.386587666667     0          
153      C      0.611943333333     0.131546000000     0.334588000000     0          
154      C      0.603478333333     0.135199666667     0.333333333333     0          
155      S      0.605228333333     0.144876333333     0.392528666667     0          
156      S      0.631720000000     0.146806666667     0.527612333333     0          
157      C      0.637593333333     0.154046666667     0.355053666667     0          
158      C      0.644453333333     0.155251333333     0.407941666667     0          
159      N      0.656604666667     0.161958000000     0.409065000000     0          
160      C      0.662767333333     0.167954666667     0.356166333333     0          
161      C      0.342172000000     0.174883000000     0.357833666667     0          
162      N      0.348193333333     0.175525000000     0.412355666667     0          
163      C      0.360354666667     0.182040333333     0.414415333333     0          
164      C      0.367357333333     0.188366333333     0.363324000000     0          
165      S      0.374540666667     0.188371333333     0.534609333333     0          
166      S      0.384437000000     0.189740000000     0.381709666667     0          
167      H      0.411680666667     0.216092000000     0.662267000000     0          
168      H      0.403262000000     0.220356000000     0.435142333333     0          
169      H      0.383707333333     0.218977666667     0.491422666667     0          
170      H      0.370214333333     0.212345333333     0.595217000000     0          
171      H      0.346890000000     0.185039333333     0.537008000000     0          
172      H      0.658462000000     0.173159000000     0.534066666667     0          
173      H      0.633763666667     0.174503666667     0.581165333333     0          
174      H      0.620658000000     0.166522333333     0.476552333333     0          
175      H      0.627576666667     0.135291666667     0.396487333333     0          
176      H      0.612352000000     0.125382333333     0.633935333333     0          
177      H      0.627813666667     0.148523666667     0.356829000000     0          
178      H      0.640307666667     0.150745333333     0.452364666667     0          
179      H      0.364379666667     0.181988000000     0.459945000000     0          
180      H      0.377137333333     0.193476000000     0.367647666667     0          
1        C      0.456633333333     0.224766666667     0.999998333333     0          
2        O      0.467320000000     0.226637666667     0.999997000000     0          
3        C      0.446985333333     0.212263666667     0.999999333333     0          
4        C      0.448872000000     0.203047666667     0.666666666667     0          
5        N      0.460834333333     0.205202666667     0.666666666667     0          
6        C      0.434626666667     0.210044333333     0.666667666667     0          
7        O      0.425955333333     0.199268000000     0.666668333333     0          
8        C      0.431646000000     0.219660000000     0.666668666667     0          
9        C      0.420273333333     0.217339333333     0.666668333333     0          
10       N      0.410885666667     0.205078333333     0.666666666667     0          
11       C      0.441759000000     0.232063000000     0.666668000000     0          
12       O      0.439389666667     0.240378333333     0.666669000000     0          
13       C      0.454316000000     0.234839666667     0.999999666667     0          
14       C      0.463230666667     0.246154666667     0.999999333333     0          
15       N      0.461425333333     0.256199000000     0.666666666667     0          
16       H      0.441485666667     0.194076000000     0.666667000000     0          
17       H      0.417866000000     0.224226666667     0.666669333333     0          
18       H      0.472258666667     0.247770333333     0.999999000000     0          
19       C      0.543366666667     0.108566666667     0.999998333333     0          
20       O      0.532680000000     0.106695666667     0.999997000000     0          
21       C      0.553014666667     0.121069666667     0.999999333333     0          
22       C      0.551128000000     0.130285666667     0.666666666667     0          
23       N      0.539165666667     0.128130666667     0.666666666667     0          
24       C      0.565373333333     0.123289000000     0.666667666667     0          
25       O      0.574044666667     0.134065333333     0.666668333333     0          
26       C      0.568354000000     0.113673333333     0.666668666667     0          
27       C      0.579726666667     0.115994000000     0.666668333333     0          
28       N      0.589114333333     0.128255000000     0.666666666667     0          
29       C      0.558241000000     0.101270333333     0.666668000000     0          
30       O      0.560610333333     0.092955000000     0.666669000000     0          
31       C      0.545684000000     0.098493666667     0.999999666667     0          
32       C      0.536769333333     0.087178666667     0.999999333333     0          
33       N      0.538574666667     0.077134333333     0.666666666667     0          
34       H      0.558514333333     0.139257333333     0.666667000000     0          
35       H      0.582134000000     0.109106666667     0.666669333333     0          
36       H      0.527741333333     0.085563000000     0.999999000000     0          
37       C      0.468145333333     0.198009333333     0.666666666667     0          
38       C      0.456433333333     0.193581666667     0.686755333333     0          
39       C      0.454192000000     0.186781333333     0.744027333333     0          
40       C      0.464318000000     0.186429666667     0.765582666667     0          
41       C      0.465055333333     0.180259666667     0.821530333333     0          
42       C      0.455930333333     0.169573666667     0.846202000000     0          
43       C      0.459547666667     0.165868333333     0.902158333333     0          
44       C      0.471329000000     0.173892333333     0.919118333333     0          
45       C      0.478325000000     0.173325666667     0.973205666667     0          
46       C      0.485239333333     0.167387333333     0.969472000000     0          
47       C      0.486057666667     0.161775333333     0.913633666667     0          
48       C      0.492994666667     0.156151333333     0.911965000000     0          
49       C      0.499359666667     0.155890333333     0.966122666667     0          
50       C      0.506609000000     0.150287000000     0.966473666667     0          
51       C      0.507892333333     0.144182333333     0.910432000000     0          
52       C      0.500423333333     0.132559000000     0.890022666667     0          
53       C      0.504837000000     0.129882666667     0.833433666667     0          
54       C      0.515480666667     0.139551333333     0.811566333333     0          
55       C      0.522429666667     0.140086666667     0.755931666667     0          
56       C      0.530038000000     0.150111666667     0.719921000000     0          
57       C      0.535471000000     0.147335000000     0.667921333333     0          
58       C      0.531854666667     0.135324000000     0.666666666667     0          
59       S      0.522129000000     0.127439000000     0.725862000000     0          
60       S      0.520028000000     0.151746333333     0.860945666667     0          
61       C      0.512723333333     0.150365333333     0.688387000000     0          
62       C      0.511471666667     0.155959333333     0.741275000000     0          
63       N      0.504664000000     0.161323000000     0.742398333333     0          
64       C      0.498605666667     0.161464333333     0.689499666667     0          
65       C      0.491571666667     0.167188666667     0.691167000000     0          
66       N      0.490890000000     0.172511666667     0.745689000000     0          
67       C      0.484274333333     0.178075666667     0.747748666667     0          
68       C      0.477880000000     0.178720666667     0.696657333333     0          
69       S      0.477831000000     0.185827000000     0.867942666667     0          
70       S      0.476396333333     0.194264000000     0.715043000000     0          
71       H      0.449772333333     0.195044000000     0.995600333333     0          
72       H      0.445543000000     0.182472000000     0.768475666667     0          
73       H      0.447047000000     0.164483333333     0.824756000000     0          
74       H      0.453788666667     0.157717666667     0.928550333333     0          
75       H      0.481346000000     0.161765333333     0.870341333333     0          
76       H      0.493407000000     0.152029333333     0.867400000000     0          
77       H      0.492208666667     0.126242666667     0.914498666667     0          
78       H      0.500302000000     0.121200666667     0.809885666667     0          
79       H      0.531614333333     0.159088666667     0.729820666667     0          
80       H      0.541656333333     0.153865333333     0.967268666667     0          
81       H      0.518328333333     0.146172666667     0.690162333333     0          
82       H      0.516021000000     0.156333666667     0.785698000000     0          
83       H      0.484302333333     0.182112000000     0.793278333333     0          
84       H      0.472690333333     0.183324333333     0.700981000000     0          
85       C      0.468602333333     0.270585666667     0.666666666667     0          
86       C      0.473119666667     0.263392000000     0.686755333333     0          
87       C      0.479960666667     0.267931333333     0.744027333333     0          
88       C      0.480251666667     0.278305333333     0.765582666667     0          
89       C      0.486441666667     0.285167666667     0.821530333333     0          
90       C      0.497226000000     0.286754333333     0.846202000000     0          
91       C      0.500924000000     0.294018000000     0.902158333333     0          
92       C      0.492795666667     0.297706666667     0.919118333333     0          
93       C      0.493321666667     0.305195666667     0.973205666667     0          
94       C      0.499241000000     0.317942333333     0.969472000000     0          
95       C      0.504870333333     0.324330000000     0.913633666667     0          
96       C      0.510474000000     0.003453666667     0.911965000000     0          
97       C      0.510696666667     0.010014000000     0.966122666667     0          
98       C      0.516278000000     0.022760000000     0.966473666667     0          
99       C      0.522399000000     0.030097666667     0.910432000000     0          
100      C      0.534114333333     0.034255666667     0.890022666667     0          
101      C      0.536774333333     0.041284666667     0.833433666667     0          
102      C      0.527001666667     0.042212000000     0.811566333333     0          
103      C      0.526421666667     0.048559666667     0.755931666667     0          
104      C      0.516310333333     0.046128000000     0.719921000000     0          
105      C      0.519064333333     0.054266000000     0.667921333333     0          
106      C      0.531145666667     0.062623666667     0.666666666667     0          
107      S      0.539121333333     0.060832000000     0.725862000000     0          
108      S      0.514730333333     0.034594000000     0.860945666667     0          
109      C      0.516162000000     0.028735000000     0.688387000000     0          
110      C      0.510553333333     0.021936333333     0.741275000000     0          
111      N      0.505210000000     0.009866000000     0.742398333333     0          
112      C      0.505105333333     0.003728000000     0.689499666667     0          
113      C      0.499401666667     0.324408666667     0.691167000000     0          
114      N      0.494061666667     0.318443666667     0.745689000000     0          
115      C      0.488516333333     0.306364666667     0.747748666667     0          
116      C      0.487907666667     0.299393000000     0.696657333333     0          
117      S      0.480773666667     0.292282000000     0.867942666667     0          
118      S      0.472312000000     0.282476333333     0.715043000000     0          
119      H      0.471692333333     0.255344000000     0.995600333333     0          
120      H      0.484340333333     0.263652333333     0.768475666667     0          
121      H      0.502391000000     0.283019333333     0.824756000000     0          
122      H      0.509142333333     0.296417333333     0.928550333333     0          
123      H      0.504909000000     0.319675666667     0.870341333333     0          
124      H      0.514609666667     0.007958333333     0.867400000000     0          
125      H      0.540506333333     0.032400666667     0.914498666667     0          
126      H      0.545518333333     0.045424000000     0.809885666667     0          
127      H      0.507287666667     0.038766333333     0.729820666667     0          
128      H      0.512470333333     0.053899333333     0.967268666667     0          
129      H      0.520336666667     0.038450333333     0.690162333333     0          
130      H      0.510149666667     0.026068000000     0.785698000000     0          
131      H      0.484463666667     0.302380333333     0.793278333333     0          
132      H      0.483317666667     0.289680000000     0.700981000000     0          
133      C      0.396397666667     0.197885000000     0.666666666667     0          
134      C      0.403592333333     0.209507000000     0.686755333333     0          
135      C      0.398992666667     0.211767333333     0.744027333333     0          
136      C      0.388575666667     0.201745333333     0.765582666667     0          
137      C      0.381648333333     0.201053000000     0.821530333333     0          
138      C      0.379989000000     0.210152000000     0.846202000000     0          
139      C      0.372674000000     0.206594000000     0.902158333333     0          
140      C      0.369020333333     0.194881333333     0.919118333333     0          
141      C      0.361498666667     0.187959000000     0.973205666667     0          
142      C      0.348665000000     0.181150666667     0.969472000000     0          
143      C      0.342217666667     0.180375000000     0.913633666667     0          
144      C      0.663010000000     0.173542000000     0.911965000000     0          
145      C      0.656422000000     0.167242333333     0.966122666667     0          
146      C      0.643591333333     0.160100000000     0.966473666667     0          
147      C      0.636187000000     0.158867333333     0.910432000000     0          
148      C      0.631940666667     0.166332666667     0.890022666667     0          
149      C      0.624867333333     0.161979666667     0.833433666667     0          
150      C      0.623996333333     0.151383333333     0.811566333333     0          
151      C      0.617627000000     0.144500666667     0.755931666667     0          
152      C      0.620130333333     0.136907333333     0.719921000000     0          
153      C      0.611943333333     0.131546000000     0.667921333333     0          
154      C      0.603478333333     0.135199666667     0.666666666667     0          
155      S      0.605228333333     0.144876333333     0.725862000000     0          
156      S      0.631720000000     0.146806666667     0.860945666667     0          
157      C      0.637593333333     0.154046666667     0.688387000000     0          
158      C      0.644453333333     0.155251333333     0.741275000000     0          
159      N      0.656604666667     0.161958000000     0.742398333333     0          
160      C      0.662767333333     0.167954666667     0.689499666667     0          
161      C      0.342172000000     0.174883000000     0.691167000000     0          
162      N      0.348193333333     0.175525000000     0.745689000000     0          
163      C      0.360354666667     0.182040333333     0.747748666667     0          
164      C      0.367357333333     0.188366333333     0.696657333333     0          
165      S      0.374540666667     0.188371333333     0.867942666667     0          
166      S      0.384437000000     0.189740000000     0.715043000000     0          
167      H      0.411680666667     0.216092000000     0.995600333333     0          
168      H      0.403262000000     0.220356000000     0.768475666667     0          
169      H      0.383707333333     0.218977666667     0.824756000000     0          
170      H      0.370214333333     0.212345333333     0.928550333333     0          
171      H      0.346890000000     0.185039333333     0.870341333333     0          
172      H      0.658462000000     0.173159000000     0.867400000000     0          
173      H      0.633763666667     0.174503666667     0.914498666667     0          
174      H      0.620658000000     0.166522333333     0.809885666667     0          
175      H      0.627576666667     0.135291666667     0.729820666667     0          
176      H      0.612352000000     0.125382333333     0.967268666667     0          
177      H      0.627813666667     0.148523666667     0.690162333333     0          
178      H      0.640307666667     0.150745333333     0.785698000000     0          
179      H      0.364379666667     0.181988000000     0.793278333333     0          
180      H      0.377137333333     0.193476000000     0.700981000000     0          
1        C      0.456633333333     0.558100000000     0.333331666667     0          
2        O      0.467320000000     0.559971000000     0.333330333333     0          
3        C      0.446985333333     0.545597000000     0.333332666667     0          
4        C      0.448872000000     0.536381000000     0.000000000000     0          
5        N      0.460834333333     0.538536000000     0.000000000000     0          
6        C      0.434626666667     0.543377666667     0.000001000000     0          
7        O      0.425955333333     0.532601333333     0.000001666667     0          
8        C      0.431646000000     0.552993333333     0.000002000000     0          
9        C      0.420273333333     0.550672666667     0.000001666667     0          
10       N      0.410885666667     0.538411666667     0.000000000000     0          
11       C      0.441759000000     0.565396333333     0.000001333333     0          
12       O      0.439389666667     0.573711666667     0.000002333333     0          
13       C      0.454316000000     0.568173000000     0.333333000000     0          
14       C      0.463230666667     0.579488000000     0.333332666667     0          
15       N      0.461425333333     0.589532333333     0.000000000000     0          
16       H      0.441485666667     0.527409333333     0.000000333333     0          
17       H      0.417866000000     0.557560000000     0.000002666667     0          
18       H      0.472258666667     0.581103666667     0.333332333333     0          
19       C      0.543366666667     0.441900000000     0.333331666667     0          
20       O      0.532680000000     0.440029000000     0.333330333333     0          
21       C      0.553014666667     0.454403000000     0.333332666667     0          
22       C      0.551128000000     0.463619000000     0.000000000000     0          
23       N      0.539165666667     0.461464000000     0.000000000000     0          
24       C      0.565373333333     0.456622333333     0.000001000000     0          
25       O      0.574044666667     0.467398666667     0.000001666667     0          
26       C      0.568354000000     0.447006666667     0.000002000000     0          
27       C      0.579726666667     0.449327333333     0.000001666667     0          
28       N      0.589114333333     0.461588333333     0.000000000000     0          
29       C      0.558241000000     0.434603666667     0.000001333333     0          
30       O      0.560610333333     0.426288333333     0.000002333333     0          
31       C      0.545684000000     0.431827000000     0.333333000000     0          
32       C      0.536769333333     0.420512000000     0.333332666667     0          
33       N      0.538574666667     0.410467666667     0.000000000000     0          
34       H      0.558514333333     0.472590666667     0.000000333333     0          
35       H      0.582134000000     0.442440000000     0.000002666667     0          
36       H      0.527741333333     0.418896333333     0.333332333333     0          
37       C      0.468145333333     0.531342666667     0.000000000000     0          
38       C      0.456433333333     0.526915000000     0.020088666667     0          
39       C      0.454192000000     0.520114666667     0.077360666667     0          
40       C      0.464318000000     0.519763000000     0.098916000000     0          
41       C      0.465055333333     0.513593000000     0.154863666667     0          
42       C      0.455930333333     0.502907000000     0.179535333333     0          
43       C      0.459547666667     0.499201666667     0.235491666667     0          
44       C      0.471329000000     0.507225666667     0.252451666667     0          
45       C      0.478325000000     0.506659000000     0.306539000000     0          
46       C      0.485239333333     0.500720666667     0.302805333333     0          
47       C      0.486057666667     0.495108666667     0.246967000000     0          
48       C      0.492994666667     0.489484666667     0.245298333333     0          
49       C      0.499359666667     0.489223666667     0.299456000000     0          
50       C      0.506609000000     0.483620333333     0.299807000000     0          
51       C      0.507892333333     0.477515666667     0.243765333333     0          
52       C      0.500423333333     0.465892333333     0.223356000000     0          
53       C      0.504837000000     0.463216000000     0.166767000000     0          
54       C      0.515480666667     0.472884666667     0.144899666667     0          
55       C      0.522429666667     0.473420000000     0.089265000000     0          
56       C      0.530038000000     0.483445000000     0.053254333333     0          
57       C      0.535471000000     0.480668333333     0.001254666667     0          
58       C      0.531854666667     0.468657333333     0.000000000000     0          
59       S      0.522129000000     0.460772333333     0.059195333333     0          
60       S      0.520028000000     0.485079666667     0.194279000000     0          
61       C      0.512723333333     0.483698666667     0.021720333333     0          
62       C      0.511471666667     0.489292666667     0.074608333333     0          
63       N      0.504664000000     0.494656333333     0.075731666667     0          
64       C      0.498605666667     0.494797666667     0.022833000000     0          
65       C      0.491571666667     0.500522000000     0.024500333333     0          
66       N      0.490890000000     0.505845000000     0.079022333333     0          
67       C      0.484274333333     0.511409000000     0.081082000000     0          
68       C      0.477880000000     0.512054000000     0.029990666667     0          
69       S      0.477831000000     0.519160333333     0.201276000000     0          
70       S      0.476396333333     0.527597333333     0.048376333333     0          
71       H      0.449772333333     0.528377333333     0.328933666667     0          
72       H      0.445543000000     0.515805333333     0.101809000000     0          
73       H      0.447047000000     0.497816666667     0.158089333333     0          
74       H      0.453788666667     0.491051000000     0.261883666667     0          
75       H      0.481346000000     0.495098666667     0.203674666667     0          
76       H      0.493407000000     0.485362666667     0.200733333333     0          
77       H      0.492208666667     0.459576000000     0.247832000000     0          
78       H      0.500302000000     0.454534000000     0.143219000000     0          
79       H      0.531614333333     0.492422000000     0.063154000000     0          
80       H      0.541656333333     0.487198666667     0.300602000000     0          
81       H      0.518328333333     0.479506000000     0.023495666667     0          
82       H      0.516021000000     0.489667000000     0.119031333333     0          
83       H      0.484302333333     0.515445333333     0.126611666667     0          
84       H      0.472690333333     0.516657666667     0.034314333333     0          
85       C      0.468602333333     0.603919000000     0.000000000000     0          
86       C      0.473119666667     0.596725333333     0.020088666667     0          
87       C      0.479960666667     0.601264666667     0.077360666667     0          
88       C      0.480251666667     0.611638666667     0.098916000000     0          
89       C      0.486441666667     0.618501000000     0.154863666667     0          
90       C      0.497226000000     0.620087666667     0.179535333333     0          
91       C      0.500924000000     0.627351333333     0.235491666667     0          
92       C      0.492795666667     0.631040000000     0.252451666667     0          
93       C      0.493321666667     0.638529000000     0.306539000000     0          
94       C      0.499241000000     0.651275666667     0.302805333333     0          
95       C      0.504870333333     0.657663333333     0.246967000000     0          
96       C      0.510474000000     0.336787000000     0.245298333333     0          
97       C      0.510696666667     0.343347333333     0.299456000000     0          
98       C      0.516278000000     0.356093333333     0.299807000000     0          
99       C      0.522399000000     0.363431000000     0.243765333333     0          
100      C      0.534114333333     0.367589000000     0.223356000000     0          
101      C      0.536774333333     0.374618000000     0.166767000000     0          
102      C      0.527001666667     0.375545333333     0.144899666667     0          
103      C      0.526421666667     0.381893000000     0.089265000000     0          
104      C      0.516310333333     0.379461333333     0.053254333333     0          
105      C      0.519064333333     0.387599333333     0.001254666667     0          
106      C      0.531145666667     0.395957000000     0.000000000000     0          
107      S      0.539121333333     0.394165333333     0.059195333333     0          
108      S      0.514730333333     0.367927333333     0.194279000000     0          
109      C      0.516162000000     0.362068333333     0.021720333333     0          
110      C      0.510553333333     0.355269666667     0.074608333333     0          
111      N      0.505210000000     0.343199333333     0.075731666667     0          
112      C      0.505105333333     0.337061333333     0.022833000000     0          
113      C      0.499401666667     0.657742000000     0.024500333333     0          
114      N      0.494061666667     0.651777000000     0.079022333333     0          
115      C      0.488516333333     0.639698000000     0.081082000000     0          
116      C      0.487907666667     0.632726333333     0.029990666667     0          
117      S      0.480773666667     0.625615333333     0.201276000000     0          
118      S      0.472312000000     0.615809666667     0.048376333333     0          
119      H      0.471692333333     0.588677333333     0.328933666667     0          
120      H      0.484340333333     0.596985666667     0.101809000000     0          
121      H      0.502391000000     0.616352666667     0.158089333333     0          
122      H      0.509142333333     0.629750666667     0.261883666667     0          
123      H      0.504909000000     0.653009000000     0.203674666667     0          
124      H      0.514609666667     0.341291666667     0.200733333333     0          
125      H      0.540506333333     0.365734000000     0.247832000000     0          
126      H      0.545518333333     0.378757333333     0.143219000000     0          
127      H      0.507287666667     0.372099666667     0.063154000000     0          
128      H      0.512470333333     0.387232666667     0.300602000000     0          
129      H      0.520336666667     0.371783666667     0.023495666667     0          
130      H      0.510149666667     0.359401333333     0.119031333333     0          
131      H      0.484463666667     0.635713666667     0.126611666667     0          
132      H      0.483317666667     0.623013333333     0.034314333333     0          
133      C      0.396397666667     0.531218333333     0.000000000000     0          
134      C      0.403592333333     0.542840333333     0.020088666667     0          
135      C      0.398992666667     0.545100666667     0.077360666667     0          
136      C      0.388575666667     0.535078666667     0.098916000000     0          
137      C      0.381648333333     0.534386333333     0.154863666667     0          
138      C      0.379989000000     0.543485333333     0.179535333333     0          
139      C      0.372674000000     0.539927333333     0.235491666667     0          
140      C      0.369020333333     0.528214666667     0.252451666667     0          
141      C      0.361498666667     0.521292333333     0.306539000000     0          
142      C      0.348665000000     0.514484000000     0.302805333333     0          
143      C      0.342217666667     0.513708333333     0.246967000000     0          
144      C      0.663010000000     0.506875333333     0.245298333333     0          
145      C      0.656422000000     0.500575666667     0.299456000000     0          
146      C      0.643591333333     0.493433333333     0.299807000000     0          
147      C      0.636187000000     0.492200666667     0.243765333333     0          
148      C      0.631940666667     0.499666000000     0.223356000000     0          
149      C      0.624867333333     0.495313000000     0.166767000000     0          
150      C      0.623996333333     0.484716666667     0.144899666667     0          
151      C      0.617627000000     0.477834000000     0.089265000000     0          
152      C      0.620130333333     0.470240666667     0.053254333333     0          
153      C      0.611943333333     0.464879333333     0.001254666667     0          
154      C      0.603478333333     0.468533000000     0.000000000000     0          
155      S      0.605228333333     0.478209666667     0.059195333333     0          
156      S      0.631720000000     0.480140000000     0.194279000000     0          
157      C      0.637593333333     0.487380000000     0.021720333333     0          
158      C      0.644453333333     0.488584666667     0.074608333333     0          
159      N      0.656604666667     0.495291333333     0.075731666667     0          
160      C      0.662767333333     0.501288000000     0.022833000000     0          
161      C      0.342172000000     0.508216333333     0.024500333333     0          
162      N      0.348193333333     0.508858333333     0.079022333333     0          
163      C      0.360354666667     0.515373666667     0.081082000000     0          
164      C      0.367357333333     0.521699666667     0.029990666667     0          
165      S      0.374540666667     0.521704666667     0.201276000000     0          
166      S      0.384437000000     0.523073333333     0.048376333333     0          
167      H      0.411680666667     0.549425333333     0.328933666667     0          
168      H      0.403262000000     0.553689333333     0.101809000000     0          
169      H      0.383707333333     0.552311000000     0.158089333333     0          
170      H      0.370214333333     0.545678666667     0.261883666667     0          
171      H      0.346890000000     0.518372666667     0.203674666667     0          
172      H      0.658462000000     0.506492333333     0.200733333333     0          
173      H      0.633763666667     0.507837000000     0.247832000000     0          
174      H      0.620658000000     0.499855666667     0.143219000000     0          
175      H      0.627576666667     0.468625000000     0.063154000000     0          
176      H      0.612352000000     0.458715666667     0.300602000000     0          
177      H      0.627813666667     0.481857000000     0.023495666667     0          
178      H      0.640307666667     0.484078666667     0.119031333333     0          
179      H      0.364379666667     0.515321333333     0.126611666667     0          
180      H      0.377137333333     0.526809333333     0.034314333333     0          
1        C      0.456633333333     0.558100000000     0.666665000000     0          
2        O      0.467320000000     0.559971000000     0.666663666667     0          
3        C      0.446985333333     0.545597000000     0.666666000000     0          
4        C      0.448872000000     0.536381000000     0.333333333333     0          
5        N      0.460834333333     0.538536000000     0.333333333333     0          
6        C      0.434626666667     0.543377666667     0.333334333333     0          
7        O      0.425955333333     0.532601333333     0.333335000000     0          
8        C      0.431646000000     0.552993333333     0.333335333333     0          
9        C      0.420273333333     0.550672666667     0.333335000000     0          
10       N      0.410885666667     0.538411666667     0.333333333333     0          
11       C      0.441759000000     0.565396333333     0.333334666667     0          
12       O      0.439389666667     0.573711666667     0.333335666667     0          
13       C      0.454316000000     0.568173000000     0.666666333333     0          
14       C      0.463230666667     0.579488000000     0.666666000000     0          
15       N      0.461425333333     0.589532333333     0.333333333333     0          
16       H      0.441485666667     0.527409333333     0.333333666667     0          
17       H      0.417866000000     0.557560000000     0.333336000000     0          
18       H      0.472258666667     0.581103666667     0.666665666667     0          
19       C      0.543366666667     0.441900000000     0.666665000000     0          
20       O      0.532680000000     0.440029000000     0.666663666667     0          
21       C      0.553014666667     0.454403000000     0.666666000000     0          
22       C      0.551128000000     0.463619000000     0.333333333333     0          
23       N      0.539165666667     0.461464000000     0.333333333333     0          
24       C      0.565373333333     0.456622333333     0.333334333333     0          
25       O      0.574044666667     0.467398666667     0.333335000000     0          
26       C      0.568354000000     0.447006666667     0.333335333333     0          
27       C      0.579726666667     0.449327333333     0.333335000000     0          
28       N      0.589114333333     0.461588333333     0.333333333333     0          
29       C      0.558241000000     0.434603666667     0.333334666667     0          
30       O      0.560610333333     0.426288333333     0.333335666667     0          
31       C      0.545684000000     0.431827000000     0.666666333333     0          
32       C      0.536769333333     0.420512000000     0.666666000000     0          
33       N      0.538574666667     0.410467666667     0.333333333333     0          
34       H      0.558514333333     0.472590666667     0.333333666667     0          
35       H      0.582134000000     0.442440000000     0.333336000000     0          
36       H      0.527741333333     0.418896333333     0.666665666667     0          
37       C      0.468145333333     0.531342666667     0.333333333333     0          
38       C      0.456433333333     0.526915000000     0.353422000000     0          
39       C      0.454192000000     0.520114666667     0.410694000000     0          
40       C      0.464318000000     0.519763000000     0.432249333333     0          
41       C      0.465055333333     0.513593000000     0.488197000000     0          
42       C      0.455930333333     0.502907000000     0.512868666667     0          
43       C      0.459547666667     0.499201666667     0.568825000000     0          
44       C      0.471329000000     0.507225666667     0.585785000000     0          
45       C      0.478325000000     0.506659000000     0.639872333333     0          
46       C      0.485239333333     0.500720666667     0.636138666667     0          
47       C      0.486057666667     0.495108666667     0.580300333333     0          
48       C      0.492994666667     0.489484666667     0.578631666667     0          
49       C      0.499359666667     0.489223666667     0.632789333333     0          
50       C      0.506609000000     0.483620333333     0.633140333333     0          
51       C      0.507892333333     0.477515666667     0.577098666667     0          
52       C      0.500423333333     0.465892333333     0.556689333333     0          
53       C      0.504837000000     0.463216000000     0.500100333333     0          
54       C      0.515480666667     0.472884666667     0.478233000000     0          
55       C      0.522429666667     0.473420000000     0.422598333333     0          
56       C      0.530038000000     0.483445000000     0.386587666667     0          
57       C      0.535471000000     0.480668333333     0.334588000000     0          
58       C      0.531854666667     0.468657333333     0.333333333333     0          
59       S      0.522129000000     0.460772333333     0.392528666667     0          
60       S      0.520028000000     0.485079666667     0.527612333333     0          
61       C      0.512723333333     0.483698666667     0.355053666667     0          
62       C      0.511471666667     0.489292666667     0.407941666667     0          
63       N      0.504664000000     0.494656333333     0.409065000000     0          
64       C      0.498605666667     0.494797666667     0.356166333333     0          
65       C      0.491571666667     0.500522000000     0.357833666667     0          
66       N      0.490890000000     0.505845000000     0.412355666667     0          
67       C      0.484274333333     0.511409000000     0.414415333333     0          
68       C      0.477880000000     0.512054000000     0.363324000000     0          
69       S      0.477831000000     0.519160333333     0.534609333333     0          
70       S      0.476396333333     0.527597333333     0.381709666667     0          
71       H      0.449772333333     0.528377333333     0.662267000000     0          
72       H      0.445543000000     0.515805333333     0.435142333333     0          
73       H      0.447047000000     0.497816666667     0.491422666667     0          
74       H      0.453788666667     0.491051000000     0.595217000000     0          
75       H      0.481346000000     0.495098666667     0.537008000000     0          
76       H      0.493407000000     0.485362666667     0.534066666667     0          
77       H      0.492208666667     0.459576000000     0.581165333333     0          
78       H      0.500302000000     0.454534000000     0.476552333333     0          
79       H      0.531614333333     0.492422000000     0.396487333333     0          
80       H      0.541656333333     0.487198666667     0.633935333333     0          
81       H      0.518328333333     0.479506000000     0.356829000000     0          
82       H      0.516021000000     0.489667000000     0.452364666667     0          
83       H      0.484302333333     0.515445333333     0.459945000000     0          
84       H      0.472690333333     0.516657666667     0.367647666667     0          
85       C      0.468602333333     0.603919000000     0.333333333333     0          
86       C      0.473119666667     0.596725333333     0.353422000000     0          
87       C      0.479960666667     0.601264666667     0.410694000000     0          
88       C      0.480251666667     0.611638666667     0.432249333333     0          
89       C      0.486441666667     0.618501000000     0.488197000000     0          
90       C      0.497226000000     0.620087666667     0.512868666667     0          
91       C      0.500924000000     0.627351333333     0.568825000000     0          
92       C      0.492795666667     0.631040000000     0.585785000000     0          
93       C      0.493321666667     0.638529000000     0.639872333333     0          
94       C      0.499241000000     0.651275666667     0.636138666667     0          
95       C      0.504870333333     0.657663333333     0.580300333333     0          
96       C      0.510474000000     0.336787000000     0.578631666667     0          
97       C      0.510696666667     0.343347333333     0.632789333333     0          
98       C      0.516278000000     0.356093333333     0.633140333333     0          
99       C      0.522399000000     0.363431000000     0.577098666667     0          
100      C      0.534114333333     0.367589000000     0.556689333333     0          
101      C      0.536774333333     0.374618000000     0.500100333333     0          
102      C      0.527001666667     0.375545333333     0.478233000000     0          
103      C      0.526421666667     0.381893000000     0.422598333333     0          
104      C      0.516310333333     0.379461333333     0.386587666667     0          
105      C      0.519064333333     0.387599333333     0.334588000000     0          
106      C      0.531145666667     0.395957000000     0.333333333333     0          
107      S      0.539121333333     0.394165333333     0.392528666667     0          
108      S      0.514730333333     0.367927333333     0.527612333333     0          
109      C      0.516162000000     0.362068333333     0.355053666667     0          
110      C      0.510553333333     0.355269666667     0.407941666667     0          
111      N      0.505210000000     0.343199333333     0.409065000000     0          
112      C      0.505105333333     0.337061333333     0.356166333333     0          
113      C      0.499401666667     0.657742000000     0.357833666667     0          
114      N      0.494061666667     0.651777000000     0.412355666667     0          
115      C      0.488516333333     0.639698000000     0.414415333333     0          
116      C      0.487907666667     0.632726333333     0.363324000000     0          
117      S      0.480773666667     0.625615333333     0.534609333333     0          
118      S      0.472312000000     0.615809666667     0.381709666667     0          
119      H      0.471692333333     0.588677333333     0.662267000000     0          
120      H      0.484340333333     0.596985666667     0.435142333333     0          
121      H      0.502391000000     0.616352666667     0.491422666667     0          
122      H      0.509142333333     0.629750666667     0.595217000000     0          
123      H      0.504909000000     0.653009000000     0.537008000000     0          
124      H      0.514609666667     0.341291666667     0.534066666667     0          
125      H      0.540506333333     0.365734000000     0.581165333333     0          
126      H      0.545518333333     0.378757333333     0.476552333333     0          
127      H      0.507287666667     0.372099666667     0.396487333333     0          
128      H      0.512470333333     0.387232666667     0.633935333333     0          
129      H      0.520336666667     0.371783666667     0.356829000000     0          
130      H      0.510149666667     0.359401333333     0.452364666667     0          
131      H      0.484463666667     0.635713666667     0.459945000000     0          
132      H      0.483317666667     0.623013333333     0.367647666667     0          
133      C      0.396397666667     0.531218333333     0.333333333333     0          
134      C      0.403592333333     0.542840333333     0.353422000000     0          
135      C      0.398992666667     0.545100666667     0.410694000000     0          
136      C      0.388575666667     0.535078666667     0.432249333333     0          
137      C      0.381648333333     0.534386333333     0.488197000000     0          
138      C      0.379989000000     0.543485333333     0.512868666667     0          
139      C      0.372674000000     0.539927333333     0.568825000000     0          
140      C      0.369020333333     0.528214666667     0.585785000000     0          
141      C      0.361498666667     0.521292333333     0.639872333333     0          
142      C      0.348665000000     0.514484000000     0.636138666667     0          
143      C      0.342217666667     0.513708333333     0.580300333333     0          
144      C      0.663010000000     0.506875333333     0.578631666667     0          
145      C      0.656422000000     0.500575666667     0.632789333333     0          
146      C      0.643591333333     0.493433333333     0.633140333333     0          
147      C      0.636187000000     0.492200666667     0.577098666667     0          
148      C      0.631940666667     0.499666000000     0.556689333333     0          
149      C      0.624867333333     0.495313000000     0.500100333333     0          
150      C      0.623996333333     0.484716666667     0.478233000000     0          
151      C      0.617627000000     0.477834000000     0.422598333333     0          
152      C      0.620130333333     0.470240666667     0.386587666667     0          
153      C      0.611943333333     0.464879333333     0.334588000000     0          
154      C      0.603478333333     0.468533000000     0.333333333333     0          
155      S      0.605228333333     0.478209666667     0.392528666667     0          
156      S      0.631720000000     0.480140000000     0.527612333333     0          
157      C      0.637593333333     0.487380000000     0.355053666667     0          
158      C      0.644453333333     0.488584666667     0.407941666667     0          
159      N      0.656604666667     0.495291333333     0.409065000000     0          
160      C      0.662767333333     0.501288000000     0.356166333333     0          
161      C      0.342172000000     0.508216333333     0.357833666667     0          
162      N      0.348193333333     0.508858333333     0.412355666667     0          
163      C      0.360354666667     0.515373666667     0.414415333333     0          
164      C      0.367357333333     0.521699666667     0.363324000000     0          
165      S      0.374540666667     0.521704666667     0.534609333333     0          
166      S      0.384437000000     0.523073333333     0.381709666667     0          
167      H      0.411680666667     0.549425333333     0.662267000000     0          
168      H      0.403262000000     0.553689333333     0.435142333333     0          
169      H      0.383707333333     0.552311000000     0.491422666667     0          
170      H      0.370214333333     0.545678666667     0.595217000000     0          
171      H      0.346890000000     0.518372666667     0.537008000000     0          
172      H      0.658462000000     0.506492333333     0.534066666667     0          
173      H      0.633763666667     0.507837000000     0.581165333333     0          
174      H      0.620658000000     0.499855666667     0.476552333333     0          
175      H      0.627576666667     0.468625000000     0.396487333333     0          
176      H      0.612352000000     0.458715666667     0.633935333333     0          
177      H      0.627813666667     0.481857000000     0.356829000000     0          
178      H      0.640307666667     0.484078666667     0.452364666667     0          
179      H      0.364379666667     0.515321333333     0.459945000000     0          
180      H      0.377137333333     0.526809333333     0.367647666667     0          
1        C      0.456633333333     0.558100000000     0.999998333333     0          
2        O      0.467320000000     0.559971000000     0.999997000000     0          
3        C      0.446985333333     0.545597000000     0.999999333333     0          
4        C      0.448872000000     0.536381000000     0.666666666667     0          
5        N      0.460834333333     0.538536000000     0.666666666667     0          
6        C      0.434626666667     0.543377666667     0.666667666667     0          
7        O      0.425955333333     0.532601333333     0.666668333333     0          
8        C      0.431646000000     0.552993333333     0.666668666667     0          
9        C      0.420273333333     0.550672666667     0.666668333333     0          
10       N      0.410885666667     0.538411666667     0.666666666667     0          
11       C      0.441759000000     0.565396333333     0.666668000000     0          
12       O      0.439389666667     0.573711666667     0.666669000000     0          
13       C      0.454316000000     0.568173000000     0.999999666667     0          
14       C      0.463230666667     0.579488000000     0.999999333333     0          
15       N      0.461425333333     0.589532333333     0.666666666667     0          
16       H      0.441485666667     0.527409333333     0.666667000000     0          
17       H      0.417866000000     0.557560000000     0.666669333333     0          
18       H      0.472258666667     0.581103666667     0.999999000000     0          
19       C      0.543366666667     0.441900000000     0.999998333333     0          
20       O      0.532680000000     0.440029000000     0.999997000000     0          
21       C      0.553014666667     0.454403000000     0.999999333333     0          
22       C      0.551128000000     0.463619000000     0.666666666667     0          
23       N      0.539165666667     0.461464000000     0.666666666667     0          
24       C      0.565373333333     0.456622333333     0.666667666667     0          
25       O      0.574044666667     0.467398666667     0.666668333333     0          
26       C      0.568354000000     0.447006666667     0.666668666667     0          
27       C      0.579726666667     0.449327333333     0.666668333333     0          
28       N      0.589114333333     0.461588333333     0.666666666667     0          
29       C      0.558241000000     0.434603666667     0.666668000000     0          
30       O      0.560610333333     0.426288333333     0.666669000000     0          
31       C      0.545684000000     0.431827000000     0.999999666667     0          
32       C      0.536769333333     0.420512000000     0.999999333333     0          
33       N      0.538574666667     0.410467666667     0.666666666667     0          
34       H      0.558514333333     0.472590666667     0.666667000000     0          
35       H      0.582134000000     0.442440000000     0.666669333333     0          
36       H      0.527741333333     0.418896333333     0.999999000000     0          
37       C      0.468145333333     0.531342666667     0.666666666667     0          
38       C      0.456433333333     0.526915000000     0.686755333333     0          
39       C      0.454192000000     0.520114666667     0.744027333333     0          
40       C      0.464318000000     0.519763000000     0.765582666667     0          
41       C      0.465055333333     0.513593000000     0.821530333333     0          
42       C      0.455930333333     0.502907000000     0.846202000000     0          
43       C      0.459547666667     0.499201666667     0.902158333333     0          
44       C      0.471329000000     0.507225666667     0.919118333333     0          
45       C      0.478325000000     0.506659000000     0.973205666667     0          
46       C      0.485239333333     0.500720666667     0.969472000000     0          
47       C      0.486057666667     0.495108666667     0.913633666667     0          
48       C      0.492994666667     0.489484666667     0.911965000000     0          
49       C      0.499359666667     0.489223666667     0.966122666667     0          
50       C      0.506609000000     0.483620333333     0.966473666667     0          
51       C      0.507892333333     0.477515666667     0.910432000000     0          
52       C      0.500423333333     0.465892333333     0.890022666667     0          
53       C      0.504837000000     0.463216000000     0.833433666667     0          
54       C      0.515480666667     0.472884666667     0.811566333333     0          
55       C      0.522429666667     0.473420000000     0.755931666667     0          
56       C      0.530038000000     0.483445000000     0.719921000000     0          
57       C      0.535471000000     0.480668333333     0.667921333333     0          
58       C      0.531854666667     0.468657333333     0.666666666667     0          
59       S      0.522129000000     0.460772333333     0.725862000000     0          
60       S      0.520028000000     0.485079666667     0.860945666667     0          
61       C      0.512723333333     0.483698666667     0.688387000000     0          
62       C      0.511471666667     0.489292666667     0.741275000000     0          
63       N      0.504664000000     0.494656333333     0.742398333333     0          
64       C      0.498605666667     0.494797666667     0.689499666667     0          
65       C      0.491571666667     0.500522000000     0.691167000000     0          
66       N      0.490890000000     0.505845000000     0.745689000000     0          
67       C      0.484274333333     0.511409000000     0.747748666667     0          
68       C      0.477880000000     0.512054000000     0.696657333333     0          
69       S      0.477831000000     0.519160333333     0.867942666667     0          
70       S      0.476396333333     0.527597333333     0.715043000000     0          
71       H      0.449772333333     0.528377333333     0.995600333333     0          
72       H      0.445543000000     0.515805333333     0.768475666667     0          
73       H      0.447047000000     0.497816666667     0.824756000000     0          
74       H      0.453788666667     0.491051000000     0.928550333333     0          
75       H      0.481346000000     0.495098666667     0.870341333333     0          
76       H      0.493407000000     0.485362666667     0.867400000000     0          
77       H      0.492208666667     0.459576000000     0.914498666667     0          
78       H      0.500302000000     0.454534000000     0.809885666667     0          
79       H      0.531614333333     0.492422000000     0.729820666667     0          
80       H      0.541656333333     0.487198666667     0.967268666667     0          
81       H      0.518328333333     0.479506000000     0.690162333333     0          
82       H      0.516021000000     0.489667000000     0.785698000000     0          
83       H      0.484302333333     0.515445333333     0.793278333333     0          
84       H      0.472690333333     0.516657666667     0.700981000000     0          
85       C      0.468602333333     0.603919000000     0.666666666667     0          
86       C      0.473119666667     0.596725333333     0.686755333333     0          
87       C      0.479960666667     0.601264666667     0.744027333333     0          
88       C      0.480251666667     0.611638666667     0.765582666667     0          
89       C      0.486441666667     0.618501000000     0.821530333333     0          
90       C      0.497226000000     0.620087666667     0.846202000000     0          
91       C      0.500924000000     0.627351333333     0.902158333333     0          
92       C      0.492795666667     0.631040000000     0.919118333333     0          
93       C      0.493321666667     0.638529000000     0.973205666667     0          
94       C      0.499241000000     0.651275666667     0.969472000000     0          
95       C      0.504870333333     0.657663333333     0.913633666667     0          
96       C      0.510474000000     0.336787000000     0.911965000000     0          
97       C      0.510696666667     0.343347333333     0.966122666667     0          
98       C      0.516278000000     0.356093333333     0.966473666667     0          
99       C      0.522399000000     0.363431000000     0.910432000000     0          
100      C      0.534114333333     0.367589000000     0.890022666667     0          
101      C      0.536774333333     0.374618000000     0.833433666667     0          
102      C      0.527001666667     0.375545333333     0.811566333333     0          
103      C      0.526421666667     0.381893000000     0.755931666667     0          
104      C      0.516310333333     0.379461333333     0.719921000000     0          
105      C      0.519064333333     0.387599333333     0.667921333333     0          
106      C      0.531145666667     0.395957000000     0.666666666667     0          
107      S      0.539121333333     0.394165333333     0.725862000000     0          
108      S      0.514730333333     0.367927333333     0.860945666667     0          
109      C      0.516162000000     0.362068333333     0.688387000000     0          
110      C      0.510553333333     0.355269666667     0.741275000000     0          
111      N      0.505210000000     0.343199333333     0.742398333333     0          
112      C      0.505105333333     0.337061333333     0.689499666667     0          
113      C      0.499401666667     0.657742000000     0.691167000000     0          
114      N      0.494061666667     0.651777000000     0.745689000000     0          
115      C      0.488516333333     0.639698000000     0.747748666667     0          
116      C      0.487907666667     0.632726333333     0.696657333333     0          
117      S      0.480773666667     0.625615333333     0.867942666667     0          
118      S      0.472312000000     0.615809666667     0.715043000000     0          
119      H      0.471692333333     0.588677333333     0.995600333333     0          
120      H      0.484340333333     0.596985666667     0.768475666667     0          
121      H      0.502391000000     0.616352666667     0.824756000000     0          
122      H      0.509142333333     0.629750666667     0.928550333333     0          
123      H      0.504909000000     0.653009000000     0.870341333333     0          
124      H      0.514609666667     0.341291666667     0.867400000000     0          
125      H      0.540506333333     0.365734000000     0.914498666667     0          
126      H      0.545518333333     0.378757333333     0.809885666667     0          
127      H      0.507287666667     0.372099666667     0.729820666667     0          
128      H      0.512470333333     0.387232666667     0.967268666667     0          
129      H      0.520336666667     0.371783666667     0.690162333333     0          
130      H      0.510149666667     0.359401333333     0.785698000000     0          
131      H      0.484463666667     0.635713666667     0.793278333333     0          
132      H      0.483317666667     0.623013333333     0.700981000000     0          
133      C      0.396397666667     0.531218333333     0.666666666667     0          
134      C      0.403592333333     0.542840333333     0.686755333333     0          
135      C      0.398992666667     0.545100666667     0.744027333333     0          
136      C      0.388575666667     0.535078666667     0.765582666667     0          
137      C      0.381648333333     0.534386333333     0.821530333333     0          
138      C      0.379989000000     0.543485333333     0.846202000000     0          
139      C      0.372674000000     0.539927333333     0.902158333333     0          
140      C      0.369020333333     0.528214666667     0.919118333333     0          
141      C      0.361498666667     0.521292333333     0.973205666667     0          
142      C      0.348665000000     0.514484000000     0.969472000000     0          
143      C      0.342217666667     0.513708333333     0.913633666667     0          
144      C      0.663010000000     0.506875333333     0.911965000000     0          
145      C      0.656422000000     0.500575666667     0.966122666667     0          
146      C      0.643591333333     0.493433333333     0.966473666667     0          
147      C      0.636187000000     0.492200666667     0.910432000000     0          
148      C      0.631940666667     0.499666000000     0.890022666667     0          
149      C      0.624867333333     0.495313000000     0.833433666667     0          
150      C      0.623996333333     0.484716666667     0.811566333333     0          
151      C      0.617627000000     0.477834000000     0.755931666667     0          
152      C      0.620130333333     0.470240666667     0.719921000000     0          
153      C      0.611943333333     0.464879333333     0.667921333333     0          
154      C      0.603478333333     0.468533000000     0.666666666667     0          
155      S      0.605228333333     0.478209666667     0.725862000000     0          
156      S      0.631720000000     0.480140000000     0.860945666667     0          
157      C      0.637593333333     0.487380000000     0.688387000000     0          
158      C      0.644453333333     0.488584666667     0.741275000000     0          
159      N      0.656604666667     0.495291333333     0.742398333333     0          
160      C      0.662767333333     0.501288000000     0.689499666667     0          
161      C      0.342172000000     0.508216333333     0.691167000000     0          
162      N      0.348193333333     0.508858333333     0.745689000000     0          
163      C      0.360354666667     0.515373666667     0.747748666667     0          
164      C      0.367357333333     0.521699666667     0.696657333333     0          
165      S      0.374540666667     0.521704666667     0.867942666667     0          
166      S      0.384437000000     0.523073333333     0.715043000000     0          
167      H      0.411680666667     0.549425333333     0.995600333333     0          
168      H      0.403262000000     0.553689333333     0.768475666667     0          
169      H      0.383707333333     0.552311000000     0.824756000000     0          
170      H      0.370214333333     0.545678666667     0.928550333333     0          
171      H      0.346890000000     0.518372666667     0.870341333333     0          
172      H      0.658462000000     0.506492333333     0.867400000000     0          
173      H      0.633763666667     0.507837000000     0.914498666667     0          
174      H      0.620658000000     0.499855666667     0.809885666667     0          
175      H      0.627576666667     0.468625000000     0.729820666667     0          
176      H      0.612352000000     0.458715666667     0.967268666667     0          
177      H      0.627813666667     0.481857000000     0.690162333333     0          
178      H      0.640307666667     0.484078666667     0.785698000000     0          
179      H      0.364379666667     0.515321333333     0.793278333333     0          
180      H      0.377137333333     0.526809333333     0.700981000000     0          
1        C      0.456633333333     0.891433333333     0.333331666667     0          
2        O      0.467320000000     0.893304333333     0.333330333333     0          
3        C      0.446985333333     0.878930333333     0.333332666667     0          
4        C      0.448872000000     0.869714333333     0.000000000000     0          
5        N      0.460834333333     0.871869333333     0.000000000000     0          
6        C      0.434626666667     0.876711000000     0.000001000000     0          
7        O      0.425955333333     0.865934666667     0.000001666667     0          
8        C      0.431646000000     0.886326666667     0.000002000000     0          
9        C      0.420273333333     0.884006000000     0.000001666667     0          
10       N      0.410885666667     0.871745000000     0.000000000000     0          
11       C      0.441759000000     0.898729666667     0.000001333333     0          
12       O      0.439389666667     0.907045000000     0.000002333333     0          
13       C      0.454316000000     0.901506333333     0.333333000000     0          
14       C      0.463230666667     0.912821333333     0.333332666667     0          
15       N      0.461425333333     0.922865666667     0.000000000000     0          
16       H      0.441485666667     0.860742666667     0.000000333333     0          
17       H      0.417866000000     0.890893333333     0.000002666667     0          
18       H      0.472258666667     0.914437000000     0.333332333333     0          
19       C      0.543366666667     0.775233333333     0.333331666667     0          
20       O      0.532680000000     0.773362333333     0.333330333333     0          
21       C      0.553014666667     0.787736333333     0.333332666667     0          
22       C      0.551128000000     0.796952333333     0.000000000000     0          
23       N      0.539165666667     0.794797333333     0.000000000000     0          
24       C      0.565373333333     0.789955666667     0.000001000000     0          
25       O      0.574044666667     0.800732000000     0.000001666667     0          
26       C      0.568354000000     0.780340000000     0.000002000000     0          
27       C      0.579726666667     0.782660666667     0.000001666667     0          
28       N      0.589114333333     0.794921666667     0.000000000000     0          
29       C      0.558241000000     0.767937000000     0.000001333333     0          
30       O      0.560610333333     0.759621666667     0.000002333333     0          
31       C      0.545684000000     0.765160333333     0.333333000000     0          
32       C      0.536769333333     0.753845333333     0.333332666667     0          
33       N      0.538574666667     0.743801000000     0.000000000000     0          
34       H      0.558514333333     0.805924000000     0.000000333333     0          
35       H      0.582134000000     0.775773333333     0.000002666667     0          
36       H      0.527741333333     0.752229666667     0.333332333333     0          
37       C      0.468145333333     0.864676000000     0.000000000000     0          
38       C      0.456433333333     0.860248333333     0.020088666667     0          
39       C      0.454192000000     0.853448000000     0.077360666667     0          
40       C      0.464318000000     0.853096333333     0.098916000000     0          
41       C      0.465055333333     0.846926333333     0.154863666667     0          
42       C      0.455930333333     0.836240333333     0.179535333333     0          
43       C      0.459547666667     0.832535000000     0.235491666667     0          
44       C      0.471329000000     0.840559000000     0.252451666667     0          
45       C      0.478325000000     0.839992333333     0.306539000000     0          
46       C      0.485239333333     0.834054000000     0.302805333333     0          
47       C      0.486057666667     0.828442000000     0.246967000000     0          
48       C      0.492994666667     0.822818000000     0.245298333333     0          
49       C      0.499359666667     0.822557000000     0.299456000000     0          
50       C      0.506609000000     0.816953666667     0.299807000000     0          
51       C      0.507892333333     0.810849000000     0.243765333333     0          
52       C      0.500423333333     0.799225666667     0.223356000000     0          
53       C      0.504837000000     0.796549333333     0.166767000000     0          
54       C      0.515480666667     0.806218000000     0.144899666667     0          
55       C      0.522429666667     0.806753333333     0.089265000000     0          
56       C      0.530038000000     0.816778333333     0.053254333333     0          
57       C      0.535471000000     0.814001666667     0.001254666667     0          
58       C      0.531854666667     0.801990666667     0.000000000000     0          
59       S      0.522129000000     0.794105666667     0.059195333333     0          
60       S      0.520028000000     0.818413000000     0.194279000000     0          
61       C      0.512723333333     0.817032000000     0.021720333333     0          
62       C      0.511471666667     0.822626000000     0.074608333333     0          
63       N      0.504664000000     0.827989666667     0.075731666667     0          
64       C      0.498605666667     0.828131000000     0.022833000000     0          
65       C      0.491571666667     0.833855333333     0.024500333333     0          
66       N      0.490890000000     0.839178333333     0.079022333333     0          
67       C      0.484274333333     0.844742333333     0.081082000000     0          
68       C      0.477880000000     0.845387333333     0.029990666667     0          
69       S      0.477831000000     0.852493666667     0.201276000000     0          
70       S      0.476396333333     0.860930666667     0.048376333333     0          
71       H      0.449772333333     0.861710666667     0.328933666667     0          
72       H      0.445543000000     0.849138666667     0.101809000000     0          
73       H      0.447047000000     0.831150000000     0.158089333333     0          
74       H      0.453788666667     0.824384333333     0.261883666667     0          
75       H      0.481346000000     0.828432000000     0.203674666667     0          
76       H      0.493407000000     0.818696000000     0.200733333333     0          
77       H      0.492208666667     0.792909333333     0.247832000000     0          
78       H      0.500302000000     0.787867333333     0.143219000000     0          
79       H      0.531614333333     0.825755333333     0.063154000000     0          
80       H      0.541656333333     0.820532000000     0.300602000000     0          
81       H      0.518328333333     0.812839333333     0.023495666667     0          
82       H      0.516021000000     0.823000333333     0.119031333333     0          
83       H      0.484302333333     0.848778666667     0.126611666667     0          
84       H      0.472690333333     0.849991000000     0.034314333333     0          
85       C      0.468602333333     0.937252333333     0.000000000000     0          
86       C      0.473119666667     0.930058666667     0.020088666667     0          
87       C      0.479960666667     0.934598000000     0.077360666667     0          
88       C      0.480251666667     0.944972000000     0.098916000000     0          
89       C      0.486441666667     0.951834333333     0.154863666667     0          
90       C      0.497226000000     0.953421000000     0.179535333333     0          
91       C      0.500924000000     0.960684666667     0.235491666667     0          
92       C      0.492795666667     0.964373333333     0.252451666667     0          
93       C      0.493321666667     0.971862333333     0.306539000000     0          
94       C      0.499241000000     0.984609000000     0.302805333333     0          
95       C      0.504870333333     0.990996666667     0.246967000000     0          
96       C      0.510474000000     0.670120333333     0.245298333333     0          
97       C      0.510696666667     0.676680666667     0.299456000000     0          
98       C      0.516278000000     0.689426666667     0.299807000000     0          
99       C      0.522399000000     0.696764333333     0.243765333333     0          
100      C      0.534114333333     0.700922333333     0.223356000000     0          
101      C      0.536774333333     0.707951333333     0.166767000000     0          
102      C      0.527001666667     0.708878666667     0.144899666667     0          
103      C      0.526421666667     0.715226333333     0.089265000000     0          
104      C      0.516310333333     0.712794666667     0.053254333333     0          
105      C      0.519064333333     0.720932666667     0.001254666667     0          
106      C      0.531145666667     0.729290333333     0.000000000000     0          
107      S      0.539121333333     0.727498666667     0.059195333333     0          
108      S      0.514730333333     0.701260666667     0.194279000000     0          
109      C      0.516162000000     0.695401666667     0.021720333333     0          
110      C      0.510553333333     0.688603000000     0.074608333333     0          
111      N      0.505210000000     0.676532666667     0.075731666667     0          
112      C      0.505105333333     0.670394666667     0.022833000000     0          
113      C      0.499401666667     0.991075333333     0.024500333333     0          
114      N      0.494061666667     0.985110333333     0.079022333333     0          
115      C      0.488516333333     0.973031333333     0.081082000000     0          
116      C      0.487907666667     0.966059666667     0.029990666667     0          
117      S      0.480773666667     0.958948666667     0.201276000000     0          
118      S      0.472312000000     0.949143000000     0.048376333333     0          
119      H      0.471692333333     0.922010666667     0.328933666667     0          
120      H      0.484340333333     0.930319000000     0.101809000000     0          
121      H      0.502391000000     0.949686000000     0.158089333333     0          
122      H      0.509142333333     0.963084000000     0.261883666667     0          
123      H      0.504909000000     0.986342333333     0.203674666667     0          
124      H      0.514609666667     0.674625000000     0.200733333333     0          
125      H      0.540506333333     0.699067333333     0.247832000000     0          
126      H      0.545518333333     0.712090666667     0.143219000000     0          
127      H      0.507287666667     0.705433000000     0.063154000000     0          
128      H      0.512470333333     0.720566000000     0.300602000000     0          
129      H      0.520336666667     0.705117000000     0.023495666667     0          
130      H      0.510149666667     0.692734666667     0.119031333333     0          
131      H      0.484463666667     0.969047000000     0.126611666667     0          
132      H      0.483317666667     0.956346666667     0.034314333333     0          
133      C      0.396397666667     0.864551666667     0.000000000000     0          
134      C      0.403592333333     0.876173666667     0.020088666667     0          
135      C      0.398992666667     0.878434000000     0.077360666667     0          
136      C      0.388575666667     0.868412000000     0.098916000000     0          
137      C      0.381648333333     0.867719666667     0.154863666667     0          
138      C      0.379989000000     0.876818666667     0.179535333333     0          
139      C      0.372674000000     0.873260666667     0.235491666667     0          
140      C      0.369020333333     0.861548000000     0.252451666667     0          
141      C      0.361498666667     0.854625666667     0.306539000000     0          
142      C      0.348665000000     0.847817333333     0.302805333333     0          
143      C      0.342217666667     0.847041666667     0.246967000000     0          
144      C      0.663010000000     0.840208666667     0.245298333333     0          
145      C      0.656422000000     0.833909000000     0.299456000000     0          
146      C      0.643591333333     0.826766666667     0.299807000000     0          
147      C      0.636187000000     0.825534000000     0.243765333333     0          
148      C      0.631940666667     0.832999333333     0.223356000000     0          
149      C      0.624867333333     0.828646333333     0.166767000000     0          
150      C      0.623996333333     0.818050000000     0.144899666667     0          
151      C      0.617627000000     0.811167333333     0.089265000000     0          
152      C      0.620130333333     0.803574000000     0.053254333333     0          
153      C      0.611943333333     0.798212666667     0.001254666667     0          
154      C      0.603478333333     0.801866333333     0.000000000000     0          
155      S      0.605228333333     0.811543000000     0.059195333333     0          
156      S      0.631720000000     0.813473333333     0.194279000000     0          
157      C      0.637593333333     0.820713333333     0.021720333333     0          
158      C      0.644453333333     0.821918000000     0.074608333333     0          
159      N      0.656604666667     0.828624666667     0.075731666667     0          
160      C      0.662767333333     0.834621333333     0.022833000000     0          
161      C      0.342172000000     0.841549666667     0.024500333333     0          
162      N      0.348193333333     0.842191666667     0.079022333333     0          
163      C      0.360354666667     0.848707000000     0.081082000000     0          
164      C      0.367357333333     0.855033000000     0.029990666667     0          
165      S      0.374540666667     0.855038000000     0.201276000000     0          
166      S      0.384437000000     0.856406666667     0.048376333333     0          
167      H      0.411680666667     0.882758666667     0.328933666667     0          
168      H      0.403262000000     0.887022666667     0.101809000000     0          
169      H      0.383707333333     0.885644333333     0.158089333333     0          
170      H      0.370214333333     0.879012000000     0.261883666667     0          
171      H      0.346890000000     0.851706000000     0.203674666667     0          
172      H      0.658462000000     0.839825666667     0.200733333333     0          
173      H      0.633763666667     0.841170333333     0.247832000000     0          
174      H      0.620658000000     0.833189000000     0.143219000000     0          
175      H      0.627576666667     0.801958333333     0.063154000000     0          
176      H      0.612352000000     0.792049000000     0.300602000000     0          
177      H      0.627813666667     0.815190333333     0.023495666667     0          
178      H      0.640307666667     0.817412000000     0.119031333333     0          
179      H      0.364379666667     0.848654666667     0.126611666667     0          
180      H      0.377137333333     0.860142666667     0.034314333333     0          
1        C      0.456633333333     0.891433333333     0.666665000000     0          
2        O      0.467320000000     0.893304333333     0.666663666667     0          
3        C      0.446985333333     0.878930333333     0.666666000000     0          
4        C      0.448872000000     0.869714333333     0.333333333333     0          
5        N      0.460834333333     0.871869333333     0.333333333333     0          
6        C      0.434626666667     0.876711000000     0.333334333333     0          
7        O      0.425955333333     0.865934666667     0.333335000000     0          
8        C      0.431646000000     0.886326666667     0.333335333333     0          
9        C      0.420273333333     0.884006000000     0.333335000000     0          
10       N      0.410885666667     0.871745000000     0.333333333333     0          
11       C      0.441759000000     0.898729666667     0.333334666667     0          
12       O      0.439389666667     0.907045000000     0.333335666667     0          
13       C      0.454316000000     0.901506333333     0.666666333333     0          
14       C      0.463230666667     0.912821333333     0.666666000000     0          
15       N      0.461425333333     0.922865666667     0.333333333333     0          
16       H      0.441485666667     0.860742666667     0.333333666667     0          
17       H      0.417866000000     0.890893333333     0.333336000000     0          
18       H      0.472258666667     0.914437000000     0.666665666667     0          
19       C      0.543366666667     0.775233333333     0.666665000000     0          
20       O      0.532680000000     0.773362333333     0.666663666667     0          
21       C      0.553014666667     0.787736333333     0.666666000000     0          
22       C      0.551128000000     0.796952333333     0.333333333333     0          
23       N      0.539165666667     0.794797333333     0.333333333333     0          
24       C      0.565373333333     0.789955666667     0.333334333333     0          
25       O      0.574044666667     0.800732000000     0.333335000000     0          
26       C      0.568354000000     0.780340000000     0.333335333333     0          
27       C      0.579726666667     0.782660666667     0.333335000000     0          
28       N      0.589114333333     0.794921666667     0.333333333333     0          
29       C      0.558241000000     0.767937000000     0.333334666667     0          
30       O      0.560610333333     0.759621666667     0.333335666667     0          
31       C      0.545684000000     0.765160333333     0.666666333333     0          
32       C      0.536769333333     0.753845333333     0.666666000000     0          
33       N      0.538574666667     0.743801000000     0.333333333333     0          
34       H      0.558514333333     0.805924000000     0.333333666667     0          
35       H      0.582134000000     0.775773333333     0.333336000000     0          
36       H      0.527741333333     0.752229666667     0.666665666667     0          
37       C      0.468145333333     0.864676000000     0.333333333333     0          
38       C      0.456433333333     0.860248333333     0.353422000000     0          
39       C      0.454192000000     0.853448000000     0.410694000000     0          
40       C      0.464318000000     0.853096333333     0.432249333333     0          
41       C      0.465055333333     0.846926333333     0.488197000000     0          
42       C      0.455930333333     0.836240333333     0.512868666667     0          
43       C      0.459547666667     0.832535000000     0.568825000000     0          
44       C      0.471329000000     0.840559000000     0.585785000000     0          
45       C      0.478325000000     0.839992333333     0.639872333333     0          
46       C      0.485239333333     0.834054000000     0.636138666667     0          
47       C      0.486057666667     0.828442000000     0.580300333333     0          
48       C      0.492994666667     0.822818000000     0.578631666667     0          
49       C      0.499359666667     0.822557000000     0.632789333333     0          
50       C      0.506609000000     0.816953666667     0.633140333333     0          
51       C      0.507892333333     0.810849000000     0.577098666667     0          
52       C      0.500423333333     0.799225666667     0.556689333333     0          
53       C      0.504837000000     0.796549333333     0.500100333333     0          
54       C      0.515480666667     0.806218000000     0.478233000000     0          
55       C      0.522429666667     0.806753333333     0.422598333333     0          
56       C      0.530038000000     0.816778333333     0.386587666667     0          
57       C      0.535471000000     0.814001666667     0.334588000000     0          
58       C      0.531854666667     0.801990666667     0.333333333333     0          
59       S      0.522129000000     0.794105666667     0.392528666667     0          
60       S      0.520028000000     0.818413000000     0.527612333333     0          
61       C      0.512723333333     0.817032000000     0.355053666667     0          
62       C      0.511471666667     0.822626000000     0.407941666667     0          
63       N      0.504664000000     0.827989666667     0.409065000000     0          
64       C      0.498605666667     0.828131000000     0.356166333333     0          
65       C      0.491571666667     0.833855333333     0.357833666667     0          
66       N      0.490890000000     0.839178333333     0.412355666667     0          
67       C      0.484274333333     0.844742333333     0.414415333333     0          
68       C      0.477880000000     0.845387333333     0.363324000000     0          
69       S      0.477831000000     0.852493666667     0.534609333333     0          
70       S      0.476396333333     0.860930666667     0.381709666667     0          
71       H      0.449772333333     0.861710666667     0.662267000000     0          
72       H      0.445543000000     0.849138666667     0.435142333333     0          
73       H      0.447047000000     0.831150000000     0.491422666667     0          
74       H      0.453788666667     0.824384333333     0.595217000000     0          
75       H      0.481346000000     0.828432000000     0.537008000000     0          
76       H      0.493407000000     0.818696000000     0.534066666667     0          
77       H      0.492208666667     0.792909333333     0.581165333333     0          
78       H      0.500302000000     0.787867333333     0.476552333333     0          
79       H      0.531614333333     0.825755333333     0.396487333333     0          
80       H      0.541656333333     0.820532000000     0.633935333333     0          
81       H      0.518328333333     0.812839333333     0.356829000000     0          
82       H      0.516021000000     0.823000333333     0.452364666667     0          
83       H      0.484302333333     0.848778666667     0.459945000000     0          
84       H      0.472690333333     0.849991000000     0.367647666667     0          
85       C      0.468602333333     0.937252333333     0.333333333333     0          
86       C      0.473119666667     0.930058666667     0.353422000000     0          
87       C      0.479960666667     0.934598000000     0.410694000000     0          
88       C      0.480251666667     0.944972000000     0.432249333333     0          
89       C      0.486441666667     0.951834333333     0.488197000000     0          
90       C      0.497226000000     0.953421000000     0.512868666667     0          
91       C      0.500924000000     0.960684666667     0.568825000000     0          
92       C      0.492795666667     0.964373333333     0.585785000000     0          
93       C      0.493321666667     0.971862333333     0.639872333333     0          
94       C      0.499241000000     0.984609000000     0.636138666667     0          
95       C      0.504870333333     0.990996666667     0.580300333333     0          
96       C      0.510474000000     0.670120333333     0.578631666667     0          
97       C      0.510696666667     0.676680666667     0.632789333333     0          
98       C      0.516278000000     0.689426666667     0.633140333333     0          
99       C      0.522399000000     0.696764333333     0.577098666667     0          
100      C      0.534114333333     0.700922333333     0.556689333333     0          
101      C      0.536774333333     0.707951333333     0.500100333333     0          
102      C      0.527001666667     0.708878666667     0.478233000000     0          
103      C      0.526421666667     0.715226333333     0.422598333333     0          
104      C      0.516310333333     0.712794666667     0.386587666667     0          
105      C      0.519064333333     0.720932666667     0.334588000000     0          
106      C      0.531145666667     0.729290333333     0.333333333333     0          
107      S      0.539121333333     0.727498666667     0.392528666667     0          
108      S      0.514730333333     0.701260666667     0.527612333333     0          
109      C      0.516162000000     0.695401666667     0.355053666667     0          
110      C      0.510553333333     0.688603000000     0.407941666667     0          
111      N      0.505210000000     0.676532666667     0.409065000000     0          
112      C      0.505105333333     0.670394666667     0.356166333333     0          
113      C      0.499401666667     0.991075333333     0.357833666667     0          
114      N      0.494061666667     0.985110333333     0.412355666667     0          
115      C      0.488516333333     0.973031333333     0.414415333333     0          
116      C      0.487907666667     0.966059666667     0.363324000000     0          
117      S      0.480773666667     0.958948666667     0.534609333333     0          
118      S      0.472312000000     0.949143000000     0.381709666667     0          
119      H      0.471692333333     0.922010666667     0.662267000000     0          
120      H      0.484340333333     0.930319000000     0.435142333333     0          
121      H      0.502391000000     0.949686000000     0.491422666667     0          
122      H      0.509142333333     0.963084000000     0.595217000000     0          
123      H      0.504909000000     0.986342333333     0.537008000000     0          
124      H      0.514609666667     0.674625000000     0.534066666667     0          
125      H      0.540506333333     0.699067333333     0.581165333333     0          
126      H      0.545518333333     0.712090666667     0.476552333333     0          
127      H      0.507287666667     0.705433000000     0.396487333333     0          
128      H      0.512470333333     0.720566000000     0.633935333333     0          
129      H      0.520336666667     0.705117000000     0.356829000000     0          
130      H      0.510149666667     0.692734666667     0.452364666667     0          
131      H      0.484463666667     0.969047000000     0.459945000000     0          
132      H      0.483317666667     0.956346666667     0.367647666667     0          
133      C      0.396397666667     0.864551666667     0.333333333333     0          
134      C      0.403592333333     0.876173666667     0.353422000000     0          
135      C      0.398992666667     0.878434000000     0.410694000000     0          
136      C      0.388575666667     0.868412000000     0.432249333333     0          
137      C      0.381648333333     0.867719666667     0.488197000000     0          
138      C      0.379989000000     0.876818666667     0.512868666667     0          
139      C      0.372674000000     0.873260666667     0.568825000000     0          
140      C      0.369020333333     0.861548000000     0.585785000000     0          
141      C      0.361498666667     0.854625666667     0.639872333333     0          
142      C      0.348665000000     0.847817333333     0.636138666667     0          
143      C      0.342217666667     0.847041666667     0.580300333333     0          
144      C      0.663010000000     0.840208666667     0.578631666667     0          
145      C      0.656422000000     0.833909000000     0.632789333333     0          
146      C      0.643591333333     0.826766666667     0.633140333333     0          
147      C      0.636187000000     0.825534000000     0.577098666667     0          
148      C      0.631940666667     0.832999333333     0.556689333333     0          
149      C      0.624867333333     0.828646333333     0.500100333333     0          
150      C      0.623996333333     0.818050000000     0.478233000000     0          
151      C      0.617627000000     0.811167333333     0.422598333333     0          
152      C      0.620130333333     0.803574000000     0.386587666667     0          
153      C      0.611943333333     0.798212666667     0.334588000000     0          
154      C      0.603478333333     0.801866333333     0.333333333333     0          
155      S      0.605228333333     0.811543000000     0.392528666667     0          
156      S      0.631720000000     0.813473333333     0.527612333333     0          
157      C      0.637593333333     0.820713333333     0.355053666667     0          
158      C      0.644453333333     0.821918000000     0.407941666667     0          
159      N      0.656604666667     0.828624666667     0.409065000000     0          
160      C      0.662767333333     0.834621333333     0.356166333333     0          
161      C      0.342172000000     0.841549666667     0.357833666667     0          
162      N      0.348193333333     0.842191666667     0.412355666667     0          
163      C      0.360354666667     0.848707000000     0.414415333333     0          
164      C      0.367357333333     0.855033000000     0.363324000000     0          
165      S      0.374540666667     0.855038000000     0.534609333333     0          
166      S      0.384437000000     0.856406666667     0.381709666667     0          
167      H      0.411680666667     0.882758666667     0.662267000000     0          
168      H      0.403262000000     0.887022666667     0.435142333333     0          
169      H      0.383707333333     0.885644333333     0.491422666667     0          
170      H      0.370214333333     0.879012000000     0.595217000000     0          
171      H      0.346890000000     0.851706000000     0.537008000000     0          
172      H      0.658462000000     0.839825666667     0.534066666667     0          
173      H      0.633763666667     0.841170333333     0.581165333333     0          
174      H      0.620658000000     0.833189000000     0.476552333333     0          
175      H      0.627576666667     0.801958333333     0.396487333333     0          
176      H      0.612352000000     0.792049000000     0.633935333333     0          
177      H      0.627813666667     0.815190333333     0.356829000000     0          
178      H      0.640307666667     0.817412000000     0.452364666667     0          
179      H      0.364379666667     0.848654666667     0.459945000000     0          
180      H      0.377137333333     0.860142666667     0.367647666667     0          
1        C      0.456633333333     0.891433333333     0.999998333333     0          
2        O      0.467320000000     0.893304333333     0.999997000000     0          
3        C      0.446985333333     0.878930333333     0.999999333333     0          
4        C      0.448872000000     0.869714333333     0.666666666667     0          
5        N      0.460834333333     0.871869333333     0.666666666667     0          
6        C      0.434626666667     0.876711000000     0.666667666667     0          
7        O      0.425955333333     0.865934666667     0.666668333333     0          
8        C      0.431646000000     0.886326666667     0.666668666667     0          
9        C      0.420273333333     0.884006000000     0.666668333333     0          
10       N      0.410885666667     0.871745000000     0.666666666667     0          
11       C      0.441759000000     0.898729666667     0.666668000000     0          
12       O      0.439389666667     0.907045000000     0.666669000000     0          
13       C      0.454316000000     0.901506333333     0.999999666667     0          
14       C      0.463230666667     0.912821333333     0.999999333333     0          
15       N      0.461425333333     0.922865666667     0.666666666667     0          
16       H      0.441485666667     0.860742666667     0.666667000000     0          
17       H      0.417866000000     0.890893333333     0.666669333333     0          
18       H      0.472258666667     0.914437000000     0.999999000000     0          
19       C      0.543366666667     0.775233333333     0.999998333333     0          
20       O      0.532680000000     0.773362333333     0.999997000000     0          
21       C      0.553014666667     0.787736333333     0.999999333333     0          
22       C      0.551128000000     0.796952333333     0.666666666667     0          
23       N      0.539165666667     0.794797333333     0.666666666667     0          
24       C      0.565373333333     0.789955666667     0.666667666667     0          
25       O      0.574044666667     0.800732000000     0.666668333333     0          
26       C      0.568354000000     0.780340000000     0.666668666667     0          
27       C      0.579726666667     0.782660666667     0.666668333333     0          
28       N      0.589114333333     0.794921666667     0.666666666667     0          
29       C      0.558241000000     0.767937000000     0.666668000000     0          
30       O      0.560610333333     0.759621666667     0.666669000000     0          
31       C      0.545684000000     0.765160333333     0.999999666667     0          
32       C      0.536769333333     0.753845333333     0.999999333333     0          
33       N      0.538574666667     0.743801000000     0.666666666667     0          
34       H      0.558514333333     0.805924000000     0.666667000000     0          
35       H      0.582134000000     0.775773333333     0.666669333333     0          
36       H      0.527741333333     0.752229666667     0.999999000000     0          
37       C      0.468145333333     0.864676000000     0.666666666667     0          
38       C      0.456433333333     0.860248333333     0.686755333333     0          
39       C      0.454192000000     0.853448000000     0.744027333333     0          
40       C      0.464318000000     0.853096333333     0.765582666667     0          
41       C      0.465055333333     0.846926333333     0.821530333333     0          
42       C      0.455930333333     0.836240333333     0.846202000000     0          
43       C      0.459547666667     0.832535000000     0.902158333333     0          
44       C      0.471329000000     0.840559000000     0.919118333333     0          
45       C      0.478325000000     0.839992333333     0.973205666667     0          
46       C      0.485239333333     0.834054000000     0.969472000000     0          
47       C      0.486057666667     0.828442000000     0.913633666667     0          
48       C      0.492994666667     0.822818000000     0.911965000000     0          
49       C      0.499359666667     0.822557000000     0.966122666667     0          
50       C      0.506609000000     0.816953666667     0.966473666667     0          
51       C      0.507892333333     0.810849000000     0.910432000000     0          
52       C      0.500423333333     0.799225666667     0.890022666667     0          
53       C      0.504837000000     0.796549333333     0.833433666667     0          
54       C      0.515480666667     0.806218000000     0.811566333333     0          
55       C      0.522429666667     0.806753333333     0.755931666667     0          
56       C      0.530038000000     0.816778333333     0.719921000000     0          
57       C      0.535471000000     0.814001666667     0.667921333333     0          
58       C      0.531854666667     0.801990666667     0.666666666667     0          
59       S      0.522129000000     0.794105666667     0.725862000000     0          
60       S      0.520028000000     0.818413000000     0.860945666667     0          
61       C      0.512723333333     0.817032000000     0.688387000000     0          
62       C      0.511471666667     0.822626000000     0.741275000000     0          
63       N      0.504664000000     0.827989666667     0.742398333333     0          
64       C      0.498605666667     0.828131000000     0.689499666667     0          
65       C      0.491571666667     0.833855333333     0.691167000000     0          
66       N      0.490890000000     0.839178333333     0.745689000000     0          
67       C      0.484274333333     0.844742333333     0.747748666667     0          
68       C      0.477880000000     0.845387333333     0.696657333333     0          
69       S      0.477831000000     0.852493666667     0.867942666667     0          
70       S      0.476396333333     0.860930666667     0.715043000000     0          
71       H      0.449772333333     0.861710666667     0.995600333333     0          
72       H      0.445543000000     0.849138666667     0.768475666667     0          
73       H      0.447047000000     0.831150000000     0.824756000000     0          
74       H      0.453788666667     0.824384333333     0.928550333333     0          
75       H      0.481346000000     0.828432000000     0.870341333333     0          
76       H      0.493407000000     0.818696000000     0.867400000000     0          
77       H      0.492208666667     0.792909333333     0.914498666667     0          
78       H      0.500302000000     0.787867333333     0.809885666667     0          
79       H      0.531614333333     0.825755333333     0.729820666667     0          
80       H      0.541656333333     0.820532000000     0.967268666667     0          
81       H      0.518328333333     0.812839333333     0.690162333333     0          
82       H      0.516021000000     0.823000333333     0.785698000000     0          
83       H      0.484302333333     0.848778666667     0.793278333333     0          
84       H      0.472690333333     0.849991000000     0.700981000000     0          
85       C      0.468602333333     0.937252333333     0.666666666667     0          
86       C      0.473119666667     0.930058666667     0.686755333333     0          
87       C      0.479960666667     0.934598000000     0.744027333333     0          
88       C      0.480251666667     0.944972000000     0.765582666667     0          
89       C      0.486441666667     0.951834333333     0.821530333333     0          
90       C      0.497226000000     0.953421000000     0.846202000000     0          
91       C      0.500924000000     0.960684666667     0.902158333333     0          
92       C      0.492795666667     0.964373333333     0.919118333333     0          
93       C      0.493321666667     0.971862333333     0.973205666667     0          
94       C      0.499241000000     0.984609000000     0.969472000000     0          
95       C      0.504870333333     0.990996666667     0.913633666667     0          
96       C      0.510474000000     0.670120333333     0.911965000000     0          
97       C      0.510696666667     0.676680666667     0.966122666667     0          
98       C      0.516278000000     0.689426666667     0.966473666667     0          
99       C      0.522399000000     0.696764333333     0.910432000000     0          
100      C      0.534114333333     0.700922333333     0.890022666667     0          
101      C      0.536774333333     0.707951333333     0.833433666667     0          
102      C      0.527001666667     0.708878666667     0.811566333333     0          
103      C      0.526421666667     0.715226333333     0.755931666667     0          
104      C      0.516310333333     0.712794666667     0.719921000000     0          
105      C      0.519064333333     0.720932666667     0.667921333333     0          
106      C      0.531145666667     0.729290333333     0.666666666667     0          
107      S      0.539121333333     0.727498666667     0.725862000000     0          
108      S      0.514730333333     0.701260666667     0.860945666667     0          
109      C      0.516162000000     0.695401666667     0.688387000000     0          
110      C      0.510553333333     0.688603000000     0.741275000000     0          
111      N      0.505210000000     0.676532666667     0.742398333333     0          
112      C      0.505105333333     0.670394666667     0.689499666667     0          
113      C      0.499401666667     0.991075333333     0.691167000000     0          
114      N      0.494061666667     0.985110333333     0.745689000000     0          
115      C      0.488516333333     0.973031333333     0.747748666667     0          
116      C      0.487907666667     0.966059666667     0.696657333333     0          
117      S      0.480773666667     0.958948666667     0.867942666667     0          
118      S      0.472312000000     0.949143000000     0.715043000000     0          
119      H      0.471692333333     0.922010666667     0.995600333333     0          
120      H      0.484340333333     0.930319000000     0.768475666667     0          
121      H      0.502391000000     0.949686000000     0.824756000000     0          
122      H      0.509142333333     0.963084000000     0.928550333333     0          
123      H      0.504909000000     0.986342333333     0.870341333333     0          
124      H      0.514609666667     0.674625000000     0.867400000000     0          
125      H      0.540506333333     0.699067333333     0.914498666667     0          
126      H      0.545518333333     0.712090666667     0.809885666667     0          
127      H      0.507287666667     0.705433000000     0.729820666667     0          
128      H      0.512470333333     0.720566000000     0.967268666667     0          
129      H      0.520336666667     0.705117000000     0.690162333333     0          
130      H      0.510149666667     0.692734666667     0.785698000000     0          
131      H      0.484463666667     0.969047000000     0.793278333333     0          
132      H      0.483317666667     0.956346666667     0.700981000000     0          
133      C      0.396397666667     0.864551666667     0.666666666667     0          
134      C      0.403592333333     0.876173666667     0.686755333333     0          
135      C      0.398992666667     0.878434000000     0.744027333333     0          
136      C      0.388575666667     0.868412000000     0.765582666667     0          
137      C      0.381648333333     0.867719666667     0.821530333333     0          
138      C      0.379989000000     0.876818666667     0.846202000000     0          
139      C      0.372674000000     0.873260666667     0.902158333333     0          
140      C      0.369020333333     0.861548000000     0.919118333333     0          
141      C      0.361498666667     0.854625666667     0.973205666667     0          
142      C      0.348665000000     0.847817333333     0.969472000000     0          
143      C      0.342217666667     0.847041666667     0.913633666667     0          
144      C      0.663010000000     0.840208666667     0.911965000000     0          
145      C      0.656422000000     0.833909000000     0.966122666667     0          
146      C      0.643591333333     0.826766666667     0.966473666667     0          
147      C      0.636187000000     0.825534000000     0.910432000000     0          
148      C      0.631940666667     0.832999333333     0.890022666667     0          
149      C      0.624867333333     0.828646333333     0.833433666667     0          
150      C      0.623996333333     0.818050000000     0.811566333333     0          
151      C      0.617627000000     0.811167333333     0.755931666667     0          
152      C      0.620130333333     0.803574000000     0.719921000000     0          
153      C      0.611943333333     0.798212666667     0.667921333333     0          
154      C      0.603478333333     0.801866333333     0.666666666667     0          
155      S      0.605228333333     0.811543000000     0.725862000000     0          
156      S      0.631720000000     0.813473333333     0.860945666667     0          
157      C      0.637593333333     0.820713333333     0.688387000000     0          
158      C      0.644453333333     0.821918000000     0.741275000000     0          
159      N      0.656604666667     0.828624666667     0.742398333333     0          
160      C      0.662767333333     0.834621333333     0.689499666667     0          
161      C      0.342172000000     0.841549666667     0.691167000000     0          
162      N      0.348193333333     0.842191666667     0.745689000000     0          
163      C      0.360354666667     0.848707000000     0.747748666667     0          
164      C      0.367357333333     0.855033000000     0.696657333333     0          
165      S      0.374540666667     0.855038000000     0.867942666667     0          
166      S      0.384437000000     0.856406666667     0.715043000000     0          
167      H      0.411680666667     0.882758666667     0.995600333333     0          
168      H      0.403262000000     0.887022666667     0.768475666667     0          
169      H      0.383707333333     0.885644333333     0.824756000000     0          
170      H      0.370214333333     0.879012000000     0.928550333333     0          
171      H      0.346890000000     0.851706000000     0.870341333333     0          
172      H      0.658462000000     0.839825666667     0.867400000000     0          
173      H      0.633763666667     0.841170333333     0.914498666667     0          
174      H      0.620658000000     0.833189000000     0.809885666667     0          
175      H      0.627576666667     0.801958333333     0.729820666667     0          
176      H      0.612352000000     0.792049000000     0.967268666667     0          
177      H      0.627813666667     0.815190333333     0.690162333333     0          
178      H      0.640307666667     0.817412000000     0.785698000000     0          
179      H      0.364379666667     0.848654666667     0.793278333333     0          
180      H      0.377137333333     0.860142666667     0.700981000000     0          
1        C      0.789966666667     0.224766666667     0.333331666667     0          
2        O      0.800653333333     0.226637666667     0.333330333333     0          
3        C      0.780318666667     0.212263666667     0.333332666667     0          
4        C      0.782205333333     0.203047666667     0.000000000000     0          
5        N      0.794167666667     0.205202666667     0.000000000000     0          
6        C      0.767960000000     0.210044333333     0.000001000000     0          
7        O      0.759288666667     0.199268000000     0.000001666667     0          
8        C      0.764979333333     0.219660000000     0.000002000000     0          
9        C      0.753606666667     0.217339333333     0.000001666667     0          
10       N      0.744219000000     0.205078333333     0.000000000000     0          
11       C      0.775092333333     0.232063000000     0.000001333333     0          
12       O      0.772723000000     0.240378333333     0.000002333333     0          
13       C      0.787649333333     0.234839666667     0.333333000000     0          
14       C      0.796564000000     0.246154666667     0.333332666667     0          
15       N      0.794758666667     0.256199000000     0.000000000000     0          
16       H      0.774819000000     0.194076000000     0.000000333333     0          
17       H      0.751199333333     0.224226666667     0.000002666667     0          
18       H      0.805592000000     0.247770333333     0.333332333333     0          
19       C      0.876700000000     0.108566666667     0.333331666667     0          
20       O      0.866013333333     0.106695666667     0.333330333333     0          
21       C      0.886348000000     0.121069666667     0.333332666667     0          
22       C      0.884461333333     0.130285666667     0.000000000000     0          
23       N      0.872499000000     0.128130666667     0.000000000000     0          
24       C      0.898706666667     0.123289000000     0.000001000000     0          
25       O      0.907378000000     0.134065333333     0.000001666667     0          
26       C      0.901687333333     0.113673333333     0.000002000000     0          
27       C      0.913060000000     0.115994000000     0.000001666667     0          
28       N      0.922447666667     0.128255000000     0.000000000000     0          
29       C      0.891574333333     0.101270333333     0.000001333333     0          
30       O      0.893943666667     0.092955000000     0.000002333333     0          
31       C      0.879017333333     0.098493666667     0.333333000000     0          
32       C      0.870102666667     0.087178666667     0.333332666667     0          
33       N      0.871908000000     0.077134333333     0.000000000000     0          
34       H      0.891847666667     0.139257333333     0.000000333333     0          
35       H      0.915467333333     0.109106666667     0.000002666667     0          
36       H      0.861074666667     0.085563000000     0.333332333333     0          
37       C      0.801478666667     0.198009333333     0.000000000000     0          
38       C      0.789766666667     0.193581666667     0.020088666667     0          
39       C      0.787525333333     0.186781333333     0.077360666667     0          
40       C      0.797651333333     0.186429666667     0.098916000000     0          
41       C      0.798388666667     0.180259666667     0.154863666667     0          
42       C      0.789263666667     0.169573666667     0.179535333333     0          
43       C      0.792881000000     0.165868333333     0.235491666667     0          
44       C      0.804662333333     0.173892333333     0.252451666667     0          
45       C      0.811658333333     0.173325666667     0.306539000000     0          
46       C      0.818572666667     0.167387333333     0.302805333333     0          
47       C      0.819391000000     0.161775333333     0.246967000000     0          
48       C      0.826328000000     0.156151333333     0.245298333333     0          
49       C      0.832693000000     0.155890333333     0.299456000000     0          
50       C      0.839942333333     0.150287000000     0.299807000000     0          
51       C      0.841225666667     0.144182333333     0.243765333333     0          
52       C      0.833756666667     0.132559000000     0.223356000000     0          
53       C      0.838170333333     0.129882666667     0.166767000000     0          
54       C      0.848814000000     0.139551333333     0.144899666667     0          
55       C      0.855763000000     0.140086666667     0.089265000000     0          
56       C      0.863371333333     0.150111666667     0.053254333333     0          
57       C      0.868804333333     0.147335000000     0.001254666667     0          
58       C      0.865188000000     0.135324000000     0.000000000000     0          
59       S      0.855462333333     0.127439000000     0.059195333333     0          
60       S      0.853361333333     0.151746333333     0.194279000000     0          
61       C      0.846056666667     0.150365333333     0.021720333333     0          
62       C      0.844805000000     0.155959333333     0.074608333333     0          
63       N      0.837997333333     0.161323000000     0.075731666667     0          
64       C      0.831939000000     0.161464333333     0.022833000000     0          
65       C      0.824905000000     0.167188666667     0.024500333333     0          
66       N      0.824223333333     0.172511666667     0.079022333333     0          
67       C      0.817607666667     0.178075666667     0.081082000000     0          
68       C      0.811213333333     0.178720666667     0.029990666667     0          
69       S      0.811164333333     0.185827000000     0.201276000000     0          
70       S      0.809729666667     0.194264000000     0.048376333333     0          
71       H      0.783105666667     0.195044000000     0.328933666667     0          
72       H      0.778876333333     0.182472000000     0.101809000000     0          
73       H      0.780380333333     0.164483333333     0.158089333333     0          
74       H      0.787122000000     0.157717666667     0.261883666667     0          
75       H      0.814679333333     0.161765333333     0.203674666667     0          
76       H      0.826740333333     0.152029333333     0.200733333333     0          
77       H      0.825542000000     0.126242666667     0.247832000000     0          
78       H      0.833635333333     0.121200666667     0.143219000000     0          
79       H      0.864947666667     0.159088666667     0.063154000000     0          
80       H      0.874989666667     0.153865333333     0.300602000000     0          
81       H      0.851661666667     0.146172666667     0.023495666667     0          
82       H      0.849354333333     0.156333666667     0.119031333333     0          
83       H      0.817635666667     0.182112000000     0.126611666667     0          
84       H      0.806023666667     0.183324333333     0.034314333333     0          
85       C      0.801935666667     0.270585666667     0.000000000000     0          
86       C      0.806453000000     0.263392000000     0.020088666667     0          
87       C      0.813294000000     0.267931333333     0.077360666667     0          
88       C      0.813585000000     0.278305333333     0.098916000000     0          
89       C      0.819775000000     0.285167666667     0.154863666667     0          
90       C      0.830559333333     0.286754333333     0.179535333333     0          
91       C      0.834257333333     0.294018000000     0.235491666667     0          
92       C      0.826129000000     0.297706666667     0.252451666667     0          
93       C      0.826655000000     0.305195666667     0.306539000000     0          
94       C      0.832574333333     0.317942333333     0.302805333333     0          
95       C      0.838203666667     0.324330000000     0.246967000000     0          
96       C      0.843807333333     0.003453666667     0.245298333333     0          
97       C      0.844030000000     0.010014000000     0.299456000000     0          
98       C      0.849611333333     0.022760000000     0.299807000000     0          
99       C      0.855732333333     0.030097666667     0.243765333333     0          
100      C      0.867447666667     0.034255666667     0.223356000000     0          
101      C      0.870107666667     0.041284666667     0.166767000000     0          
102      C      0.860335000000     0.042212000000     0.144899666667     0          
103      C      0.859755000000     0.048559666667     0.089265000000     0          
104      C      0.849643666667     0.046128000000     0.053254333333     0          
105      C      0.852397666667     0.054266000000     0.001254666667     0          
106      C      0.864479000000     0.062623666667     0.000000000000     0          
107      S      0.872454666667     0.060832000000     0.059195333333     0          
108      S      0.848063666667     0.034594000000     0.194279000000     0          
109      C      0.849495333333     0.028735000000     0.021720333333     0          
110      C      0.843886666667     0.021936333333     0.074608333333     0          
111      N      0.838543333333     0.009866000000     0.075731666667     0          
112      C      0.838438666667     0.003728000000     0.022833000000     0          
113      C      0.832735000000     0.324408666667     0.024500333333     0          
114      N      0.827395000000     0.318443666667     0.079022333333     0          
115      C      0.821849666667     0.306364666667     0.081082000000     0          
116      C      0.821241000000     0.299393000000     0.029990666667     0          
117      S      0.814107000000     0.292282000000     0.201276000000     0          
118      S      0.805645333333     0.282476333333     0.048376333333     0          
119      H      0.805025666667     0.255344000000     0.328933666667     0          
120      H      0.817673666667     0.263652333333     0.101809000000     0          
121      H      0.835724333333     0.283019333333     0.158089333333     0          
122      H      0.842475666667     0.296417333333     0.261883666667     0          
123      H      0.838242333333     0.319675666667     0.203674666667     0          
124      H      0.847943000000     0.007958333333     0.200733333333     0          
125      H      0.873839666667     0.032400666667     0.247832000000     0          
126      H      0.878851666667     0.045424000000     0.143219000000     0          
127      H      0.840621000000     0.038766333333     0.063154000000     0          
128      H      0.845803666667     0.053899333333     0.300602000000     0          
129      H      0.853670000000     0.038450333333     0.023495666667     0          
130      H      0.843483000000     0.026068000000     0.119031333333     0          
131      H      0.817797000000     0.302380333333     0.126611666667     0          
132      H      0.816651000000     0.289680000000     0.034314333333     0          
133      C      0.729731000000     0.197885000000     0.000000000000     0          
134      C      0.736925666667     0.209507000000     0.020088666667     0          
135      C      0.732326000000     0.211767333333     0.077360666667     0          
136      C      0.721909000000     0.201745333333     0.098916000000     0          
137      C      0.714981666667     0.201053000000     0.154863666667     0          
138      C      0.713322333333     0.210152000000     0.179535333333     0          
139      C      0.706007333333     0.206594000000     0.235491666667     0          
140      C      0.702353666667     0.194881333333     0.252451666667     0          
141      C      0.694832000000     0.187959000000     0.306539000000     0          
142      C      0.681998333333     0.181150666667     0.302805333333     0          
143      C      0.675551000000     0.180375000000     0.246967000000     0          
144      C      0.996343333333     0.173542000000     0.245298333333     0          
145      C      0.989755333333     0.167242333333     0.299456000000     0          
146      C      0.976924666667     0.160100000000     0.299807000000     0          
147      C      0.969520333333     0.158867333333     0.243765333333     0          
148      C      0.965274000000     0.166332666667     0.223356000000     0          
149      C      0.958200666667     0.161979666667     0.166767000000     0          
150      C      0.957329666667     0.151383333333     0.144899666667     0          
151      C      0.950960333333     0.144500666667     0.089265000000     0          
152      C      0.953463666667     0.136907333333     0.053254333333     0          
153      C      0.945276666667     0.131546000000     0.001254666667     0          
154      C      0.936811666667     0.135199666667     0.000000000000     0          
155      S      0.938561666667     0.144876333333     0.059195333333     0          
156      S      0.965053333333     0.146806666667     0.194279000000     0          
157      C      0.970926666667     0.154046666667     0.021720333333     0          
158      C      0.977786666667     0.155251333333     0.074608333333     0          
159      N      0.989938000000     0.161958000000     0.075731666667     0          
160      C      0.996100666667     0.167954666667     0.022833000000     0          
161      C      0.675505333333     0.174883000000     0.024500333333     0          
162      N      0.681526666667     0.175525000000     0.079022333333     0          
163      C      0.693688000000     0.182040333333     0.081082000000     0          
164      C      0.700690666667     0.188366333333     0.029990666667     0          
165      S      0.707874000000     0.188371333333     0.201276000000     0          
166      S      0.717770333333     0.189740000000     0.048376333333     0          
167      H      0.745014000000     0.216092000000     0.328933666667     0          
168      H      0.736595333333     0.220356000000     0.101809000000     0          
169      H      0.717040666667     0.218977666667     0.158089333333     0          
170      H      0.703547666667     0.212345333333     0.261883666667     0          
171      H      0.680223333333     0.185039333333     0.203674666667     0          
172      H      0.991795333333     0.173159000000     0.200733333333     0          
173      H      0.967097000000     0.174503666667     0.247832000000     0          
174      H      0.953991333333     0.166522333333     0.143219000000     0          
175      H      0.960910000000     0.135291666667     0.063154000000     0          
176      H      0.945685333333     0.125382333333     0.300602000000     0          
177      H      0.961147000000     0.148523666667     0.023495666667     0          
178      H      0.973641000000     0.150745333333     0.119031333333     0          
179      H      0.697713000000     0.181988000000     0.126611666667     0          
180      H      0.710470666667     0.193476000000     0.034314333333     0          
1        C      0.789966666667     0.224766666667     0.666665000000     0          
2        O      0.800653333333     0.226637666667     0.666663666667     0          
3        C      0.780318666667     0.212263666667     0.666666000000     0          
4        C      0.782205333333     0.203047666667     0.333333333333     0          
5        N      0.794167666667     0.205202666667     0.333333333333     0          
6        C      0.767960000000     0.210044333333     0.333334333333     0          
7        O      0.759288666667     0.199268000000     0.333335000000     0          
8        C      0.764979333333     0.219660000000     0.333335333333     0          
9        C      0.753606666667     0.217339333333     0.333335000000     0          
10       N      0.744219000000     0.205078333333     0.333333333333     0          
11       C      0.775092333333     0.232063000000     0.333334666667     0          
12       O      0.772723000000     0.240378333333     0.333335666667     0          
13       C      0.787649333333     0.234839666667     0.666666333333     0          
14       C      0.796564000000     0.246154666667     0.666666000000     0          
15       N      0.794758666667     0.256199000000     0.333333333333     0          
16       H      0.774819000000     0.194076000000     0.333333666667     0          
17       H      0.751199333333     0.224226666667     0.333336000000     0          
18       H      0.805592000000     0.247770333333     0.666665666667     0          
19       C      0.876700000000     0.108566666667     0.666665000000     0          
20       O      0.866013333333     0.106695666667     0.666663666667     0          
21       C      0.886348000000     0.121069666667     0.666666000000     0          
22       C      0.884461333333     0.130285666667     0.333333333333     0          
23       N      0.872499000000     0.128130666667     0.333333333333     0          
24       C      0.898706666667     0.123289000000     0.333334333333     0          
25       O      0.907378000000     0.134065333333     0.333335000000     0          
26       C      0.901687333333     0.113673333333     0.333335333333     0          
27       C      0.913060000000     0.115994000000     0.333335000000     0          
28       N      0.922447666667     0.128255000000     0.333333333333     0          
29       C      0.891574333333     0.101270333333     0.333334666667     0          
30       O      0.893943666667     0.092955000000     0.333335666667     0          
31       C      0.879017333333     0.098493666667     0.666666333333     0          
32       C      0.870102666667     0.087178666667     0.666666000000     0          
33       N      0.871908000000     0.077134333333     0.333333333333     0          
34       H      0.891847666667     0.139257333333     0.333333666667     0          
35       H      0.915467333333     0.109106666667     0.333336000000     0          
36       H      0.861074666667     0.085563000000     0.666665666667     0          
37       C      0.801478666667     0.198009333333     0.333333333333     0          
38       C      0.789766666667     0.193581666667     0.353422000000     0          
39       C      0.787525333333     0.186781333333     0.410694000000     0          
40       C      0.797651333333     0.186429666667     0.432249333333     0          
41       C      0.798388666667     0.180259666667     0.488197000000     0          
42       C      0.789263666667     0.169573666667     0.512868666667     0          
43       C      0.792881000000     0.165868333333     0.568825000000     0          
44       C      0.804662333333     0.173892333333     0.585785000000     0          
45       C      0.811658333333     0.173325666667     0.639872333333     0          
46       C      0.818572666667     0.167387333333     0.636138666667     0          
47       C      0.819391000000     0.161775333333     0.580300333333     0          
48       C      0.826328000000     0.156151333333     0.578631666667     0          
49       C      0.832693000000     0.155890333333     0.632789333333     0          
50       C      0.839942333333     0.150287000000     0.633140333333     0          
51       C      0.841225666667     0.144182333333     0.577098666667     0          
52       C      0.833756666667     0.132559000000     0.556689333333     0          
53       C      0.838170333333     0.129882666667     0.500100333333     0          
54       C      0.848814000000     0.139551333333     0.478233000000     0          
55       C      0.855763000000     0.140086666667     0.422598333333     0          
56       C      0.863371333333     0.150111666667     0.386587666667     0          
57       C      0.868804333333     0.147335000000     0.334588000000     0          
58       C      0.865188000000     0.135324000000     0.333333333333     0          
59       S      0.855462333333     0.127439000000     0.392528666667     0          
60       S      0.853361333333     0.151746333333     0.527612333333     0          
61       C      0.846056666667     0.150365333333     0.355053666667     0          
62       C      0.844805000000     0.155959333333     0.407941666667     0          
63       N      0.837997333333     0.161323000000     0.409065000000     0          
64       C      0.831939000000     0.161464333333     0.356166333333     0          
65       C      0.824905000000     0.167188666667     0.357833666667     0          
66       N      0.824223333333     0.172511666667     0.412355666667     0          
67       C      0.817607666667     0.178075666667     0.414415333333     0          
68       C      0.811213333333     0.178720666667     0.363324000000     0          
69       S      0.811164333333     0.185827000000     0.534609333333     0          
70       S      0.809729666667     0.194264000000     0.381709666667     0          
71       H      0.783105666667     0.195044000000     0.662267000000     0          
72       H      0.778876333333     0.182472000000     0.435142333333     0          
73       H      0.780380333333     0.164483333333     0.491422666667     0          
74       H      0.787122000000     0.157717666667     0.595217000000     0          
75       H      0.814679333333     0.161765333333     0.537008000000     0          
76       H      0.826740333333     0.152029333333     0.534066666667     0          
77       H      0.825542000000     0.126242666667     0.581165333333     0          
78       H      0.833635333333     0.121200666667     0.476552333333     0          
79       H      0.864947666667     0.159088666667     0.396487333333     0          
80       H      0.874989666667     0.153865333333     0.633935333333     0          
81       H      0.851661666667     0.146172666667     0.356829000000     0          
82       H      0.849354333333     0.156333666667     0.452364666667     0          
83       H      0.817635666667     0.182112000000     0.459945000000     0          
84       H      0.806023666667     0.183324333333     0.367647666667     0          
85       C      0.801935666667     0.270585666667     0.333333333333     0          
86       C      0.806453000000     0.263392000000     0.353422000000     0          
87       C      0.813294000000     0.267931333333     0.410694000000     0          
88       C      0.813585000000     0.278305333333     0.432249333333     0          
89       C      0.819775000000     0.285167666667     0.488197000000     0          
90       C      0.830559333333     0.286754333333     0.512868666667     0          
91       C      0.834257333333     0.294018000000     0.568825000000     0          
92       C      0.826129000000     0.297706666667     0.585785000000     0          
93       C      0.826655000000     0.305195666667     0.639872333333     0          
94       C      0.832574333333     0.317942333333     0.636138666667     0          
95       C      0.838203666667     0.324330000000     0.580300333333     0          
96       C      0.843807333333     0.003453666667     0.578631666667     0          
97       C      0.844030000000     0.010014000000     0.632789333333     0          
98       C      0.849611333333     0.022760000000     0.633140333333     0          
99       C      0.855732333333     0.030097666667     0.577098666667     0          
100      C      0.867447666667     0.034255666667     0.556689333333     0          
101      C      0.870107666667     0.041284666667     0.500100333333     0          
102      C      0.860335000000     0.042212000000     0.478233000000     0          
103      C      0.859755000000     0.048559666667     0.422598333333     0          
104      C      0.849643666667     0.046128000000     0.386587666667     0          
105      C      0.852397666667     0.054266000000     0.334588000000     0          
106      C      0.864479000000     0.062623666667     0.333333333333     0          
107      S      0.872454666667     0.060832000000     0.392528666667     0          
108      S      0.848063666667     0.034594000000     0.527612333333     0          
109      C      0.849495333333     0.028735000000     0.355053666667     0          
110      C      0.843886666667     0.021936333333     0.407941666667     0          
111      N      0.838543333333     0.009866000000     0.409065000000     0          
112      C      0.838438666667     0.003728000000     0.356166333333     0          
113      C      0.832735000000     0.324408666667     0.357833666667     0          
114      N      0.827395000000     0.318443666667     0.412355666667     0          
115      C      0.821849666667     0.306364666667     0.414415333333     0          
116      C      0.821241000000     0.299393000000     0.363324000000     0          
117      S      0.814107000000     0.292282000000     0.534609333333     0          
118      S      0.805645333333     0.282476333333     0.381709666667     0          
119      H      0.805025666667     0.255344000000     0.662267000000     0          
120      H      0.817673666667     0.263652333333     0.435142333333     0          
121      H      0.835724333333     0.283019333333     0.491422666667     0          
122      H      0.842475666667     0.296417333333     0.595217000000     0          
123      H      0.838242333333     0.319675666667     0.537008000000     0          
124      H      0.847943000000     0.007958333333     0.534066666667     0          
125      H      0.873839666667     0.032400666667     0.581165333333     0          
126      H      0.878851666667     0.045424000000     0.476552333333     0          
127      H      0.840621000000     0.038766333333     0.396487333333     0          
128      H      0.845803666667     0.053899333333     0.633935333333     0          
129      H      0.853670000000     0.038450333333     0.356829000000     0          
130      H      0.843483000000     0.026068000000     0.452364666667     0          
131      H      0.817797000000     0.302380333333     0.459945000000     0          
132      H      0.816651000000     0.289680000000     0.367647666667     0          
133      C      0.729731000000     0.197885000000     0.333333333333     0          
134      C      0.736925666667     0.209507000000     0.353422000000     0          
135      C      0.732326000000     0.211767333333     0.410694000000     0          
136      C      0.721909000000     0.201745333333     0.432249333333     0          
137      C      0.714981666667     0.201053000000     0.488197000000     0          
138      C      0.713322333333     0.210152000000     0.512868666667     0          
139      C      0.706007333333     0.206594000000     0.568825000000     0          
140      C      0.702353666667     0.194881333333     0.585785000000     0          
141      C      0.694832000000     0.187959000000     0.639872333333     0          
142      C      0.681998333333     0.181150666667     0.636138666667     0          
143      C      0.675551000000     0.180375000000     0.580300333333     0          
144      C      0.996343333333     0.173542000000     0.578631666667     0          
145      C      0.989755333333     0.167242333333     0.632789333333     0          
146      C      0.976924666667     0.160100000000     0.633140333333     0          
147      C      0.969520333333     0.158867333333     0.577098666667     0          
148      C      0.965274000000     0.166332666667     0.556689333333     0          
149      C      0.958200666667     0.161979666667     0.500100333333     0          
150      C      0.957329666667     0.151383333333     0.478233000000     0          
151      C      0.950960333333     0.144500666667     0.422598333333     0          
152      C      0.953463666667     0.136907333333     0.386587666667     0          
153      C      0.945276666667     0.131546000000     0.334588000000     0          
154      C      0.936811666667     0.135199666667     0.333333333333     0          
155      S      0.938561666667     0.144876333333     0.392528666667     0          
156      S      0.965053333333     0.146806666667     0.527612333333     0          
157      C      0.970926666667     0.154046666667     0.355053666667     0          
158      C      0.977786666667     0.155251333333     0.407941666667     0          
159      N      0.989938000000     0.161958000000     0.409065000000     0          
160      C      0.996100666667     0.167954666667     0.356166333333     0          
161      C      0.675505333333     0.174883000000     0.357833666667     0          
162      N      0.681526666667     0.175525000000     0.412355666667     0          
163      C      0.693688000000     0.182040333333     0.414415333333     0          
164      C      0.700690666667     0.188366333333     0.363324000000     0          
165      S      0.707874000000     0.188371333333     0.534609333333     0          
166      S      0.717770333333     0.189740000000     0.381709666667     0          
167      H      0.745014000000     0.216092000000     0.662267000000     0          
168      H      0.736595333333     0.220356000000     0.435142333333     0          
169      H      0.717040666667     0.218977666667     0.491422666667     0          
170      H      0.703547666667     0.212345333333     0.595217000000     0          
171      H      0.680223333333     0.185039333333     0.537008000000     0          
172      H      0.991795333333     0.173159000000     0.534066666667     0          
173      H      0.967097000000     0.174503666667     0.581165333333     0          
174      H      0.953991333333     0.166522333333     0.476552333333     0          
175      H      0.960910000000     0.135291666667     0.396487333333     0          
176      H      0.945685333333     0.125382333333     0.633935333333     0          
177      H      0.961147000000     0.148523666667     0.356829000000     0          
178      H      0.973641000000     0.150745333333     0.452364666667     0          
179      H      0.697713000000     0.181988000000     0.459945000000     0          
180      H      0.710470666667     0.193476000000     0.367647666667     0          
1        C      0.789966666667     0.224766666667     0.999998333333     0          
2        O      0.800653333333     0.226637666667     0.999997000000     0          
3        C      0.780318666667     0.212263666667     0.999999333333     0          
4        C      0.782205333333     0.203047666667     0.666666666667     0          
5        N      0.794167666667     0.205202666667     0.666666666667     0          
6        C      0.767960000000     0.210044333333     0.666667666667     0          
7        O      0.759288666667     0.199268000000     0.666668333333     0          
8        C      0.764979333333     0.219660000000     0.666668666667     0          
9        C      0.753606666667     0.217339333333     0.666668333333     0          
10       N      0.744219000000     0.205078333333     0.666666666667     0          
11       C      0.775092333333     0.232063000000     0.666668000000     0          
12       O      0.772723000000     0.240378333333     0.666669000000     0          
13       C      0.787649333333     0.234839666667     0.999999666667     0          
14       C      0.796564000000     0.246154666667     0.999999333333     0          
15       N      0.794758666667     0.256199000000     0.666666666667     0          
16       H      0.774819000000     0.194076000000     0.666667000000     0          
17       H      0.751199333333     0.224226666667     0.666669333333     0          
18       H      0.805592000000     0.247770333333     0.999999000000     0          
19       C      0.876700000000     0.108566666667     0.999998333333     0          
20       O      0.866013333333     0.106695666667     0.999997000000     0          
21       C      0.886348000000     0.121069666667     0.999999333333     0          
22       C      0.884461333333     0.130285666667     0.666666666667     0          
23       N      0.872499000000     0.128130666667     0.666666666667     0          
24       C      0.898706666667     0.123289000000     0.666667666667     0          
25       O      0.907378000000     0.134065333333     0.666668333333     0          
26       C      0.901687333333     0.113673333333     0.666668666667     0          
27       C      0.913060000000     0.115994000000     0.666668333333     0          
28       N      0.922447666667     0.128255000000     0.666666666667     0          
29       C      0.891574333333     0.101270333333     0.666668000000     0          
30       O      0.893943666667     0.092955000000     0.666669000000     0          
31       C      0.879017333333     0.098493666667     0.999999666667     0          
32       C      0.870102666667     0.087178666667     0.999999333333     0          
33       N      0.871908000000     0.077134333333     0.666666666667     0          
34       H      0.891847666667     0.139257333333     0.666667000000     0          
35       H      0.915467333333     0.109106666667     0.666669333333     0          
36       H      0.861074666667     0.085563000000     0.999999000000     0          
37       C      0.801478666667     0.198009333333     0.666666666667     0          
38       C      0.789766666667     0.193581666667     0.686755333333     0          
39       C      0.787525333333     0.186781333333     0.744027333333     0          
40       C      0.797651333333     0.186429666667     0.765582666667     0          
41       C      0.798388666667     0.180259666667     0.821530333333     0          
42       C      0.789263666667     0.169573666667     0.846202000000     0          
43       C      0.792881000000     0.165868333333     0.902158333333     0          
44       C      0.804662333333     0.173892333333     0.919118333333     0          
45       C      0.811658333333     0.173325666667     0.973205666667     0          
46       C      0.818572666667     0.167387333333     0.969472000000     0          
47       C      0.819391000000     0.161775333333     0.913633666667     0          
48       C      0.826328000000     0.156151333333     0.911965000000     0          
49       C      0.832693000000     0.155890333333     0.966122666667     0          
50       C      0.839942333333     0.150287000000     0.966473666667     0          
51       C      0.841225666667     0.144182333333     0.910432000000     0          
52       C      0.833756666667     0.132559000000     0.890022666667     0          
53       C      0.838170333333     0.129882666667     0.833433666667     0          
54       C      0.848814000000     0.139551333333     0.811566333333     0          
55       C      0.855763000000     0.140086666667     0.755931666667     0          
56       C      0.863371333333     0.150111666667     0.719921000000     0          
57       C      0.868804333333     0.147335000000     0.667921333333     0          
58       C      0.865188000000     0.135324000000     0.666666666667     0          
59       S      0.855462333333     0.127439000000     0.725862000000     0          
60       S      0.853361333333     0.151746333333     0.860945666667     0          
61       C      0.846056666667     0.150365333333     0.688387000000     0          
62       C      0.844805000000     0.155959333333     0.741275000000     0          
63       N      0.837997333333     0.161323000000     0.742398333333     0          
64       C      0.831939000000     0.161464333333     0.689499666667     0          
65       C      0.824905000000     0.167188666667     0.691167000000     0          
66       N      0.824223333333     0.172511666667     0.745689000000     0          
67       C      0.817607666667     0.178075666667     0.747748666667     0          
68       C      0.811213333333     0.178720666667     0.696657333333     0          
69       S      0.811164333333     0.185827000000     0.867942666667     0          
70       S      0.809729666667     0.194264000000     0.715043000000     0          
71       H      0.783105666667     0.195044000000     0.995600333333     0          
72       H      0.778876333333     0.182472000000     0.768475666667     0          
73       H      0.780380333333     0.164483333333     0.824756000000     0          
74       H      0.787122000000     0.157717666667     0.928550333333     0          
75       H      0.814679333333     0.161765333333     0.870341333333     0          
76       H      0.826740333333     0.152029333333     0.867400000000     0          
77       H      0.825542000000     0.126242666667     0.914498666667     0          
78       H      0.833635333333     0.121200666667     0.809885666667     0          
79       H      0.864947666667     0.159088666667     0.729820666667     0          
80       H      0.874989666667     0.153865333333     0.967268666667     0          
81       H      0.851661666667     0.146172666667     0.690162333333     0          
82       H      0.849354333333     0.156333666667     0.785698000000     0          
83       H      0.817635666667     0.182112000000     0.793278333333     0          
84       H      0.806023666667     0.183324333333     0.700981000000     0          
85       C      0.801935666667     0.270585666667     0.666666666667     0          
86       C      0.806453000000     0.263392000000     0.686755333333     0          
87       C      0.813294000000     0.267931333333     0.744027333333     0          
88       C      0.813585000000     0.278305333333     0.765582666667     0          
89       C      0.819775000000     0.285167666667     0.821530333333     0          
90       C      0.830559333333     0.286754333333     0.846202000000     0          
91       C      0.834257333333     0.294018000000     0.902158333333     0          
92       C      0.826129000000     0.297706666667     0.919118333333     0          
93       C      0.826655000000     0.305195666667     0.973205666667     0          
94       C      0.832574333333     0.317942333333     0.969472000000     0          
95       C      0.838203666667     0.324330000000     0.913633666667     0          
96       C      0.843807333333     0.003453666667     0.911965000000     0          
97       C      0.844030000000     0.010014000000     0.966122666667     0          
98       C      0.849611333333     0.022760000000     0.966473666667     0          
99       C      0.855732333333     0.030097666667     0.910432000000     0          
100      C      0.867447666667     0.034255666667     0.890022666667     0          
101      C      0.870107666667     0.041284666667     0.833433666667     0          
102      C      0.860335000000     0.042212000000     0.811566333333     0          
103      C      0.859755000000     0.048559666667     0.755931666667     0          
104      C      0.849643666667     0.046128000000     0.719921000000     0          
105      C      0.852397666667     0.054266000000     0.667921333333     0          
106      C      0.864479000000     0.062623666667     0.666666666667     0          
107      S      0.872454666667     0.060832000000     0.725862000000     0          
108      S      0.848063666667     0.034594000000     0.860945666667     0          
109      C      0.849495333333     0.028735000000     0.688387000000     0          
110      C      0.843886666667     0.021936333333     0.741275000000     0          
111      N      0.838543333333     0.009866000000     0.742398333333     0          
112      C      0.838438666667     0.003728000000     0.689499666667     0          
113      C      0.832735000000     0.324408666667     0.691167000000     0          
114      N      0.827395000000     0.318443666667     0.745689000000     0          
115      C      0.821849666667     0.306364666667     0.747748666667     0          
116      C      0.821241000000     0.299393000000     0.696657333333     0          
117      S      0.814107000000     0.292282000000     0.867942666667     0          
118      S      0.805645333333     0.282476333333     0.715043000000     0          
119      H      0.805025666667     0.255344000000     0.995600333333     0          
120      H      0.817673666667     0.263652333333     0.768475666667     0          
121      H      0.835724333333     0.283019333333     0.824756000000     0          
122      H      0.842475666667     0.296417333333     0.928550333333     0          
123      H      0.838242333333     0.319675666667     0.870341333333     0          
124      H      0.847943000000     0.007958333333     0.867400000000     0          
125      H      0.873839666667     0.032400666667     0.914498666667     0          
126      H      0.878851666667     0.045424000000     0.809885666667     0          
127      H      0.840621000000     0.038766333333     0.729820666667     0          
128      H      0.845803666667     0.053899333333     0.967268666667     0          
129      H      0.853670000000     0.038450333333     0.690162333333     0          
130      H      0.843483000000     0.026068000000     0.785698000000     0          
131      H      0.817797000000     0.302380333333     0.793278333333     0          
132      H      0.816651000000     0.289680000000     0.700981000000     0          
133      C      0.729731000000     0.197885000000     0.666666666667     0          
134      C      0.736925666667     0.209507000000     0.686755333333     0          
135      C      0.732326000000     0.211767333333     0.744027333333     0          
136      C      0.721909000000     0.201745333333     0.765582666667     0          
137      C      0.714981666667     0.201053000000     0.821530333333     0          
138      C      0.713322333333     0.210152000000     0.846202000000     0          
139      C      0.706007333333     0.206594000000     0.902158333333     0          
140      C      0.702353666667     0.194881333333     0.919118333333     0          
141      C      0.694832000000     0.187959000000     0.973205666667     0          
142      C      0.681998333333     0.181150666667     0.969472000000     0          
143      C      0.675551000000     0.180375000000     0.913633666667     0          
144      C      0.996343333333     0.173542000000     0.911965000000     0          
145      C      0.989755333333     0.167242333333     0.966122666667     0          
146      C      0.976924666667     0.160100000000     0.966473666667     0          
147      C      0.969520333333     0.158867333333     0.910432000000     0          
148      C      0.965274000000     0.166332666667     0.890022666667     0          
149      C      0.958200666667     0.161979666667     0.833433666667     0          
150      C      0.957329666667     0.151383333333     0.811566333333     0          
151      C      0.950960333333     0.144500666667     0.755931666667     0          
152      C      0.953463666667     0.136907333333     0.719921000000     0          
153      C      0.945276666667     0.131546000000     0.667921333333     0          
154      C      0.936811666667     0.135199666667     0.666666666667     0          
155      S      0.938561666667     0.144876333333     0.725862000000     0          
156      S      0.965053333333     0.146806666667     0.860945666667     0          
157      C      0.970926666667     0.154046666667     0.688387000000     0          
158      C      0.977786666667     0.155251333333     0.741275000000     0          
159      N      0.989938000000     0.161958000000     0.742398333333     0          
160      C      0.996100666667     0.167954666667     0.689499666667     0          
161      C      0.675505333333     0.174883000000     0.691167000000     0          
162      N      0.681526666667     0.175525000000     0.745689000000     0          
163      C      0.693688000000     0.182040333333     0.747748666667     0          
164      C      0.700690666667     0.188366333333     0.696657333333     0          
165      S      0.707874000000     0.188371333333     0.867942666667     0          
166      S      0.717770333333     0.189740000000     0.715043000000     0          
167      H      0.745014000000     0.216092000000     0.995600333333     0          
168      H      0.736595333333     0.220356000000     0.768475666667     0          
169      H      0.717040666667     0.218977666667     0.824756000000     0          
170      H      0.703547666667     0.212345333333     0.928550333333     0          
171      H      0.680223333333     0.185039333333     0.870341333333     0          
172      H      0.991795333333     0.173159000000     0.867400000000     0          
173      H      0.967097000000     0.174503666667     0.914498666667     0          
174      H      0.953991333333     0.166522333333     0.809885666667     0          
175      H      0.960910000000     0.135291666667     0.729820666667     0          
176      H      0.945685333333     0.125382333333     0.967268666667     0          
177      H      0.961147000000     0.148523666667     0.690162333333     0          
178      H      0.973641000000     0.150745333333     0.785698000000     0          
179      H      0.697713000000     0.181988000000     0.793278333333     0          
180      H      0.710470666667     0.193476000000     0.700981000000     0          
1        C      0.789966666667     0.558100000000     0.333331666667     0          
2        O      0.800653333333     0.559971000000     0.333330333333     0          
3        C      0.780318666667     0.545597000000     0.333332666667     0          
4        C      0.782205333333     0.536381000000     0.000000000000     0          
5        N      0.794167666667     0.538536000000     0.000000000000     0          
6        C      0.767960000000     0.543377666667     0.000001000000     0          
7        O      0.759288666667     0.532601333333     0.000001666667     0          
8        C      0.764979333333     0.552993333333     0.000002000000     0          
9        C      0.753606666667     0.550672666667     0.000001666667     0          
10       N      0.744219000000     0.538411666667     0.000000000000     0          
11       C      0.775092333333     0.565396333333     0.000001333333     0          
12       O      0.772723000000     0.573711666667     0.000002333333     0          
13       C      0.787649333333     0.568173000000     0.333333000000     0          
14       C      0.796564000000     0.579488000000     0.333332666667     0          
15       N      0.794758666667     0.589532333333     0.000000000000     0          
16       H      0.774819000000     0.527409333333     0.000000333333     0          
17       H      0.751199333333     0.557560000000     0.000002666667     0          
18       H      0.805592000000     0.581103666667     0.333332333333     0          
19       C      0.876700000000     0.441900000000     0.333331666667     0          
20       O      0.866013333333     0.440029000000     0.333330333333     0          
21       C      0.886348000000     0.454403000000     0.333332666667     0          
22       C      0.884461333333     0.463619000000     0.000000000000     0          
23       N      0.872499000000     0.461464000000     0.000000000000     0          
24       C      0.898706666667     0.456622333333     0.000001000000     0          
25       O      0.907378000000     0.467398666667     0.000001666667     0          
26       C      0.901687333333     0.447006666667     0.000002000000     0          
27       C      0.913060000000     0.449327333333     0.000001666667     0          
28       N      0.922447666667     0.461588333333     0.000000000000     0          
29       C      0.891574333333     0.434603666667     0.000001333333     0          
30       O      0.893943666667     0.426288333333     0.000002333333     0          
31       C      0.879017333333     0.431827000000     0.333333000000     0          
32       C      0.870102666667     0.420512000000     0.333332666667     0          
33       N      0.871908000000     0.410467666667     0.000000000000     0          
34       H      0.891847666667     0.472590666667     0.000000333333     0          
35       H      0.915467333333     0.442440000000     0.000002666667     0          
36       H      0.861074666667     0.418896333333     0.333332333333     0          
37       C      0.801478666667     0.531342666667     0.000000000000     0          
38       C      0.789766666667     0.526915000000     0.020088666667     0          
39       C      0.787525333333     0.520114666667     0.077360666667     0          
40       C      0.797651333333     0.519763000000     0.098916000000     0          
41       C      0.798388666667     0.513593000000     0.154863666667     0          
42       C      0.789263666667     0.502907000000     0.179535333333     0          
43       C      0.792881000000     0.499201666667     0.235491666667     0          
44       C      0.804662333333     0.507225666667     0.252451666667     0          
45       C      0.811658333333     0.506659000000     0.306539000000     0          
46       C      0.818572666667     0.500720666667     0.302805333333     0          
47       C      0.819391000000     0.495108666667     0.246967000000     0          
48       C      0.826328000000     0.489484666667     0.245298333333     0          
49       C      0.832693000000     0.489223666667     0.299456000000     0          
50       C      0.839942333333     0.483620333333     0.299807000000     0          
51       C      0.841225666667     0.477515666667     0.243765333333     0          
52       C      0.833756666667     0.465892333333     0.223356000000     0          
53       C      0.838170333333     0.463216000000     0.166767000000     0          
54       C      0.848814000000     0.472884666667     0.144899666667     0          
55       C      0.855763000000     0.473420000000     0.089265000000     0          
56       C      0.863371333333     0.483445000000     0.053254333333     0          
57       C      0.868804333333     0.480668333333     0.001254666667     0          
58       C      0.865188000000     0.468657333333     0.000000000000     0          
59       S      0.855462333333     0.460772333333     0.059195333333     0          
60       S      0.853361333333     0.485079666667     0.194279000000     0          
61       C      0.846056666667     0.483698666667     0.021720333333     0          
62       C      0.844805000000     0.489292666667     0.074608333333     0          
63       N      0.837997333333     0.494656333333     0.075731666667     0          
64       C      0.831939000000     0.494797666667     0.022833000000     0          
65       C      0.824905000000     0.500522000000     0.024500333333     0          
66       N      0.824223333333     0.505845000000     0.079022333333     0          
67       C      0.817607666667     0.511409000000     0.081082000000     0          
68       C      0.811213333333     0.512054000000     0.029990666667     0          
69       S      0.811164333333     0.519160333333     0.201276000000     0          
70       S      0.809729666667     0.527597333333     0.048376333333     0          
71       H      0.783105666667     0.528377333333     0.328933666667     0          
72       H      0.778876333333     0.515805333333     0.101809000000     0          
73       H      0.780380333333     0.497816666667     0.158089333333     0          
74       H      0.787122000000     0.491051000000     0.261883666667     0          
75       H      0.814679333333     0.495098666667     0.203674666667     0          
76       H      0.826740333333     0.485362666667     0.200733333333     0          
77       H      0.825542000000     0.459576000000     0.247832000000     0          
78       H      0.833635333333     0.454534000000     0.143219000000     0          
79       H      0.864947666667     0.492422000000     0.063154000000     0          
80       H      0.874989666667     0.487198666667     0.300602000000     0          
81       H      0.851661666667     0.479506000000     0.023495666667     0          
82       H      0.849354333333     0.489667000000     0.119031333333     0          
83       H      0.817635666667     0.515445333333     0.126611666667     0          
84       H      0.806023666667     0.516657666667     0.034314333333     0          
85       C      0.801935666667     0.603919000000     0.000000000000     0          
86       C      0.806453000000     0.596725333333     0.020088666667     0          
87       C      0.813294000000     0.601264666667     0.077360666667     0          
88       C      0.813585000000     0.611638666667     0.098916000000     0          
89       C      0.819775000000     0.618501000000     0.154863666667     0          
90       C      0.830559333333     0.620087666667     0.179535333333     0          
91       C      0.834257333333     0.627351333333     0.235491666667     0          
92       C      0.826129000000     0.631040000000     0.252451666667     0          
93       C      0.826655000000     0.638529000000     0.306539000000     0          
94       C      0.832574333333     0.651275666667     0.302805333333     0          
95       C      0.838203666667     0.657663333333     0.246967000000     0          
96       C      0.843807333333     0.336787000000     0.245298333333     0          
97       C      0.844030000000     0.343347333333     0.299456000000     0          
98       C      0.849611333333     0.356093333333     0.299807000000     0          
99       C      0.855732333333     0.363431000000     0.243765333333     0          
100      C      0.867447666667     0.367589000000     0.223356000000     0          
101      C      0.870107666667     0.374618000000     0.166767000000     0          
102      C      0.860335000000     0.375545333333     0.144899666667     0          
103      C      0.859755000000     0.381893000000     0.089265000000     0          
104      C      0.849643666667     0.379461333333     0.053254333333     0          
105      C      0.852397666667     0.387599333333     0.001254666667     0          
106      C      0.864479000000     0.395957000000     0.000000000000     0          
107      S      0.872454666667     0.394165333333     0.059195333333     0          
108      S      0.848063666667     0.367927333333     0.194279000000     0          
109      C      0.849495333333     0.362068333333     0.021720333333     0          
110      C      0.843886666667     0.355269666667     0.074608333333     0          
111      N      0.838543333333     0.343199333333     0.075731666667     0          
112      C      0.838438666667     0.337061333333     0.022833000000     0          
113      C      0.832735000000     0.657742000000     0.024500333333     0          
114      N      0.827395000000     0.651777000000     0.079022333333     0          
115      C      0.821849666667     0.639698000000     0.081082000000     0          
116      C      0.821241000000     0.632726333333     0.029990666667     0          
117      S      0.814107000000     0.625615333333     0.201276000000     0          
118      S      0.805645333333     0.615809666667     0.048376333333     0          
119      H      0.805025666667     0.588677333333     0.328933666667     0          
120      H      0.817673666667     0.596985666667     0.101809000000     0          
121      H      0.835724333333     0.616352666667     0.158089333333     0          
122      H      0.842475666667     0.629750666667     0.261883666667     0          
123      H      0.838242333333     0.653009000000     0.203674666667     0          
124      H      0.847943000000     0.341291666667     0.200733333333     0          
125      H      0.873839666667     0.365734000000     0.247832000000     0          
126      H      0.878851666667     0.378757333333     0.143219000000     0          
127      H      0.840621000000     0.372099666667     0.063154000000     0          
128      H      0.845803666667     0.387232666667     0.300602000000     0          
129      H      0.853670000000     0.371783666667     0.023495666667     0          
130      H      0.843483000000     0.359401333333     0.119031333333     0          
131      H      0.817797000000     0.635713666667     0.126611666667     0          
132      H      0.816651000000     0.623013333333     0.034314333333     0          
133      C      0.729731000000     0.531218333333     0.000000000000     0          
134      C      0.736925666667     0.542840333333     0.020088666667     0          
135      C      0.732326000000     0.545100666667     0.077360666667     0          
136      C      0.721909000000     0.535078666667     0.098916000000     0          
137      C      0.714981666667     0.534386333333     0.154863666667     0          
138      C      0.713322333333     0.543485333333     0.179535333333     0          
139      C      0.706007333333     0.539927333333     0.235491666667     0          
140      C      0.702353666667     0.528214666667     0.252451666667     0          
141      C      0.694832000000     0.521292333333     0.306539000000     0          
142      C      0.681998333333     0.514484000000     0.302805333333     0          
143      C      0.675551000000     0.513708333333     0.246967000000     0          
144      C      0.996343333333     0.506875333333     0.245298333333     0          
145      C      0.989755333333     0.500575666667     0.299456000000     0          
146      C      0.976924666667     0.493433333333     0.299807000000     0          
147      C      0.969520333333     0.492200666667     0.243765333333     0          
148      C      0.965274000000     0.499666000000     0.223356000000     0          
149      C      0.958200666667     0.495313000000     0.166767000000     0          
150      C      0.957329666667     0.484716666667     0.144899666667     0          
151      C      0.950960333333     0.477834000000     0.089265000000     0          
152      C      0.953463666667     0.470240666667     0.053254333333     0          
153      C      0.945276666667     0.464879333333     0.001254666667     0          
154      C      0.936811666667     0.468533000000     0.000000000000     0          
155      S      0.938561666667     0.478209666667     0.059195333333     0          
156      S      0.965053333333     0.480140000000     0.194279000000     0          
157      C      0.970926666667     0.487380000000     0.021720333333     0          
158      C      0.977786666667     0.488584666667     0.074608333333     0          
159      N      0.989938000000     0.495291333333     0.075731666667     0          
160      C      0.996100666667     0.501288000000     0.022833000000     0          
161      C      0.675505333333     0.508216333333     0.024500333333     0          
162      N      0.681526666667     0.508858333333     0.079022333333     0          
163      C      0.693688000000     0.515373666667     0.081082000000     0          
164      C      0.700690666667     0.521699666667     0.029990666667     0          
165      S      0.707874000000     0.521704666667     0.201276000000     0          
166      S      0.717770333333     0.523073333333     0.048376333333     0          
167      H      0.745014000000     0.549425333333     0.328933666667     0          
168      H      0.736595333333     0.553689333333     0.101809000000     0          
169      H      0.717040666667     0.552311000000     0.158089333333     0          
170      H      0.703547666667     0.545678666667     0.261883666667     0          
171      H      0.680223333333     0.518372666667     0.203674666667     0          
172      H      0.991795333333     0.506492333333     0.200733333333     0          
173      H      0.967097000000     0.507837000000     0.247832000000     0          
174      H      0.953991333333     0.499855666667     0.143219000000     0          
175      H      0.960910000000     0.468625000000     0.063154000000     0          
176      H      0.945685333333     0.458715666667     0.300602000000     0          
177      H      0.961147000000     0.481857000000     0.023495666667     0          
178      H      0.973641000000     0.484078666667     0.119031333333     0          
179      H      0.697713000000     0.515321333333     0.126611666667     0          
180      H      0.710470666667     0.526809333333     0.034314333333     0          
1        C      0.789966666667     0.558100000000     0.666665000000     0          
2        O      0.800653333333     0.559971000000     0.666663666667     0          
3        C      0.780318666667     0.545597000000     0.666666000000     0          
4        C      0.782205333333     0.536381000000     0.333333333333     0          
5        N      0.794167666667     0.538536000000     0.333333333333     0          
6        C      0.767960000000     0.543377666667     0.333334333333     0          
7        O      0.759288666667     0.532601333333     0.333335000000     0          
8        C      0.764979333333     0.552993333333     0.333335333333     0          
9        C      0.753606666667     0.550672666667     0.333335000000     0          
10       N      0.744219000000     0.538411666667     0.333333333333     0          
11       C      0.775092333333     0.565396333333     0.333334666667     0          
12       O      0.772723000000     0.573711666667     0.333335666667     0          
13       C      0.787649333333     0.568173000000     0.666666333333     0          
14       C      0.796564000000     0.579488000000     0.666666000000     0          
15       N      0.794758666667     0.589532333333     0.333333333333     0          
16       H      0.774819000000     0.527409333333     0.333333666667     0          
17       H      0.751199333333     0.557560000000     0.333336000000     0          
18       H      0.805592000000     0.581103666667     0.666665666667     0          
19       C      0.876700000000     0.441900000000     0.666665000000     0          
20       O      0.866013333333     0.440029000000     0.666663666667     0          
21       C      0.886348000000     0.454403000000     0.666666000000     0          
22       C      0.884461333333     0.463619000000     0.333333333333     0          
23       N      0.872499000000     0.461464000000     0.333333333333     0          
24       C      0.898706666667     0.456622333333     0.333334333333     0          
25       O      0.907378000000     0.467398666667     0.333335000000     0          
26       C      0.901687333333     0.447006666667     0.333335333333     0          
27       C      0.913060000000     0.449327333333     0.333335000000     0          
28       N      0.922447666667     0.461588333333     0.333333333333     0          
29       C      0.891574333333     0.434603666667     0.333334666667     0          
30       O      0.893943666667     0.426288333333     0.333335666667     0          
31       C      0.879017333333     0.431827000000     0.666666333333     0          
32       C      0.870102666667     0.420512000000     0.666666000000     0          
33       N      0.871908000000     0.410467666667     0.333333333333     0          
34       H      0.891847666667     0.472590666667     0.333333666667     0          
35       H      0.915467333333     0.442440000000     0.333336000000     0          
36       H      0.861074666667     0.418896333333     0.666665666667     0          
37       C      0.801478666667     0.531342666667     0.333333333333     0          
38       C      0.789766666667     0.526915000000     0.353422000000     0          
39       C      0.787525333333     0.520114666667     0.410694000000     0          
40       C      0.797651333333     0.519763000000     0.432249333333     0          
41       C      0.798388666667     0.513593000000     0.488197000000     0          
42       C      0.789263666667     0.502907000000     0.512868666667     0          
43       C      0.792881000000     0.499201666667     0.568825000000     0          
44       C      0.804662333333     0.507225666667     0.585785000000     0          
45       C      0.811658333333     0.506659000000     0.639872333333     0          
46       C      0.818572666667     0.500720666667     0.636138666667     0          
47       C      0.819391000000     0.495108666667     0.580300333333     0          
48       C      0.826328000000     0.489484666667     0.578631666667     0          
49       C      0.832693000000     0.489223666667     0.632789333333     0          
50       C      0.839942333333     0.483620333333     0.633140333333     0          
51       C      0.841225666667     0.477515666667     0.577098666667     0          
52       C      0.833756666667     0.465892333333     0.556689333333     0          
53       C      0.838170333333     0.463216000000     0.500100333333     0          
54       C      0.848814000000     0.472884666667     0.478233000000     0          
55       C      0.855763000000     0.473420000000     0.422598333333     0          
56       C      0.863371333333     0.483445000000     0.386587666667     0          
57       C      0.868804333333     0.480668333333     0.334588000000     0          
58       C      0.865188000000     0.468657333333     0.333333333333     0          
59       S      0.855462333333     0.460772333333     0.392528666667     0          
60       S      0.853361333333     0.485079666667     0.527612333333     0          
61       C      0.846056666667     0.483698666667     0.355053666667     0          
62       C      0.844805000000     0.489292666667     0.407941666667     0          
63       N      0.837997333333     0.494656333333     0.409065000000     0          
64       C      0.831939000000     0.494797666667     0.356166333333     0          
65       C      0.824905000000     0.500522000000     0.357833666667     0          
66       N      0.824223333333     0.505845000000     0.412355666667     0          
67       C      0.817607666667     0.511409000000     0.414415333333     0          
68       C      0.811213333333     0.512054000000     0.363324000000     0          
69       S      0.811164333333     0.519160333333     0.534609333333     0          
70       S      0.809729666667     0.527597333333     0.381709666667     0          
71       H      0.783105666667     0.528377333333     0.662267000000     0          
72       H      0.778876333333     0.515805333333     0.435142333333     0          
73       H      0.780380333333     0.497816666667     0.491422666667     0          
74       H      0.787122000000     0.491051000000     0.595217000000     0          
75       H      0.814679333333     0.495098666667     0.537008000000     0          
76       H      0.826740333333     0.485362666667     0.534066666667     0          
77       H      0.825542000000     0.459576000000     0.581165333333     0          
78       H      0.833635333333     0.454534000000     0.476552333333     0          
79       H      0.864947666667     0.492422000000     0.396487333333     0          
80       H      0.874989666667     0.487198666667     0.633935333333     0          
81       H      0.851661666667     0.479506000000     0.356829000000     0          
82       H      0.849354333333     0.489667000000     0.452364666667     0          
83       H      0.817635666667     0.515445333333     0.459945000000     0          
84       H      0.806023666667     0.516657666667     0.367647666667     0          
85       C      0.801935666667     0.603919000000     0.333333333333     0          
86       C      0.806453000000     0.596725333333     0.353422000000     0          
87       C      0.813294000000     0.601264666667     0.410694000000     0          
88       C      0.813585000000     0.611638666667     0.432249333333     0          
89       C      0.819775000000     0.618501000000     0.488197000000     0          
90       C      0.830559333333     0.620087666667     0.512868666667     0          
91       C      0.834257333333     0.627351333333     0.568825000000     0          
92       C      0.826129000000     0.631040000000     0.585785000000     0          
93       C      0.826655000000     0.638529000000     0.639872333333     0          
94       C      0.832574333333     0.651275666667     0.636138666667     0          
95       C      0.838203666667     0.657663333333     0.580300333333     0          
96       C      0.843807333333     0.336787000000     0.578631666667     0          
97       C      0.844030000000     0.343347333333     0.632789333333     0          
98       C      0.849611333333     0.356093333333     0.633140333333     0          
99       C      0.855732333333     0.363431000000     0.577098666667     0          
100      C      0.867447666667     0.367589000000     0.556689333333     0          
101      C      0.870107666667     0.374618000000     0.500100333333     0          
102      C      0.860335000000     0.375545333333     0.478233000000     0          
103      C      0.859755000000     0.381893000000     0.422598333333     0          
104      C      0.849643666667     0.379461333333     0.386587666667     0          
105      C      0.852397666667     0.387599333333     0.334588000000     0          
106      C      0.864479000000     0.395957000000     0.333333333333     0          
107      S      0.872454666667     0.394165333333     0.392528666667     0          
108      S      0.848063666667     0.367927333333     0.527612333333     0          
109      C      0.849495333333     0.362068333333     0.355053666667     0          
110      C      0.843886666667     0.355269666667     0.407941666667     0          
111      N      0.838543333333     0.343199333333     0.409065000000     0          
112      C      0.838438666667     0.337061333333     0.356166333333     0          
113      C      0.832735000000     0.657742000000     0.357833666667     0          
114      N      0.827395000000     0.651777000000     0.412355666667     0          
115      C      0.821849666667     0.639698000000     0.414415333333     0          
116      C      0.821241000000     0.632726333333     0.363324000000     0          
117      S      0.814107000000     0.625615333333     0.534609333333     0          
118      S      0.805645333333     0.615809666667     0.381709666667     0          
119      H      0.805025666667     0.588677333333     0.662267000000     0          
120      H      0.817673666667     0.596985666667     0.435142333333     0          
121      H      0.835724333333     0.616352666667     0.491422666667     0          
122      H      0.842475666667     0.629750666667     0.595217000000     0          
123      H      0.838242333333     0.653009000000     0.537008000000     0          
124      H      0.847943000000     0.341291666667     0.534066666667     0          
125      H      0.873839666667     0.365734000000     0.581165333333     0          
126      H      0.878851666667     0.378757333333     0.476552333333     0          
127      H      0.840621000000     0.372099666667     0.396487333333     0          
128      H      0.845803666667     0.387232666667     0.633935333333     0          
129      H      0.853670000000     0.371783666667     0.356829000000     0          
130      H      0.843483000000     0.359401333333     0.452364666667     0          
131      H      0.817797000000     0.635713666667     0.459945000000     0          
132      H      0.816651000000     0.623013333333     0.367647666667     0          
133      C      0.729731000000     0.531218333333     0.333333333333     0          
134      C      0.736925666667     0.542840333333     0.353422000000     0          
135      C      0.732326000000     0.545100666667     0.410694000000     0          
136      C      0.721909000000     0.535078666667     0.432249333333     0          
137      C      0.714981666667     0.534386333333     0.488197000000     0          
138      C      0.713322333333     0.543485333333     0.512868666667     0          
139      C      0.706007333333     0.539927333333     0.568825000000     0          
140      C      0.702353666667     0.528214666667     0.585785000000     0          
141      C      0.694832000000     0.521292333333     0.639872333333     0          
142      C      0.681998333333     0.514484000000     0.636138666667     0          
143      C      0.675551000000     0.513708333333     0.580300333333     0          
144      C      0.996343333333     0.506875333333     0.578631666667     0          
145      C      0.989755333333     0.500575666667     0.632789333333     0          
146      C      0.976924666667     0.493433333333     0.633140333333     0          
147      C      0.969520333333     0.492200666667     0.577098666667     0          
148      C      0.965274000000     0.499666000000     0.556689333333     0          
149      C      0.958200666667     0.495313000000     0.500100333333     0          
150      C      0.957329666667     0.484716666667     0.478233000000     0          
151      C      0.950960333333     0.477834000000     0.422598333333     0          
152      C      0.953463666667     0.470240666667     0.386587666667     0          
153      C      0.945276666667     0.464879333333     0.334588000000     0          
154      C      0.936811666667     0.468533000000     0.333333333333     0          
155      S      0.938561666667     0.478209666667     0.392528666667     0          
156      S      0.965053333333     0.480140000000     0.527612333333     0          
157      C      0.970926666667     0.487380000000     0.355053666667     0          
158      C      0.977786666667     0.488584666667     0.407941666667     0          
159      N      0.989938000000     0.495291333333     0.409065000000     0          
160      C      0.996100666667     0.501288000000     0.356166333333     0          
161      C      0.675505333333     0.508216333333     0.357833666667     0          
162      N      0.681526666667     0.508858333333     0.412355666667     0          
163      C      0.693688000000     0.515373666667     0.414415333333     0          
164      C      0.700690666667     0.521699666667     0.363324000000     0          
165      S      0.707874000000     0.521704666667     0.534609333333     0          
166      S      0.717770333333     0.523073333333     0.381709666667     0          
167      H      0.745014000000     0.549425333333     0.662267000000     0          
168      H      0.736595333333     0.553689333333     0.435142333333     0          
169      H      0.717040666667     0.552311000000     0.491422666667     0          
170      H      0.703547666667     0.545678666667     0.595217000000     0          
171      H      0.680223333333     0.518372666667     0.537008000000     0          
172      H      0.991795333333     0.506492333333     0.534066666667     0          
173      H      0.967097000000     0.507837000000     0.581165333333     0          
174      H      0.953991333333     0.499855666667     0.476552333333     0          
175      H      0.960910000000     0.468625000000     0.396487333333     0          
176      H      0.945685333333     0.458715666667     0.633935333333     0          
177      H      0.961147000000     0.481857000000     0.356829000000     0          
178      H      0.973641000000     0.484078666667     0.452364666667     0          
179      H      0.697713000000     0.515321333333     0.459945000000     0          
180      H      0.710470666667     0.526809333333     0.367647666667     0          
1        C      0.789966666667     0.558100000000     0.999998333333     0          
2        O      0.800653333333     0.559971000000     0.999997000000     0          
3        C      0.780318666667     0.545597000000     0.999999333333     0          
4        C      0.782205333333     0.536381000000     0.666666666667     0          
5        N      0.794167666667     0.538536000000     0.666666666667     0          
6        C      0.767960000000     0.543377666667     0.666667666667     0          
7        O      0.759288666667     0.532601333333     0.666668333333     0          
8        C      0.764979333333     0.552993333333     0.666668666667     0          
9        C      0.753606666667     0.550672666667     0.666668333333     0          
10       N      0.744219000000     0.538411666667     0.666666666667     0          
11       C      0.775092333333     0.565396333333     0.666668000000     0          
12       O      0.772723000000     0.573711666667     0.666669000000     0          
13       C      0.787649333333     0.568173000000     0.999999666667     0          
14       C      0.796564000000     0.579488000000     0.999999333333     0          
15       N      0.794758666667     0.589532333333     0.666666666667     0          
16       H      0.774819000000     0.527409333333     0.666667000000     0          
17       H      0.751199333333     0.557560000000     0.666669333333     0          
18       H      0.805592000000     0.581103666667     0.999999000000     0          
19       C      0.876700000000     0.441900000000     0.999998333333     0          
20       O      0.866013333333     0.440029000000     0.999997000000     0          
21       C      0.886348000000     0.454403000000     0.999999333333     0          
22       C      0.884461333333     0.463619000000     0.666666666667     0          
23       N      0.872499000000     0.461464000000     0.666666666667     0          
24       C      0.898706666667     0.456622333333     0.666667666667     0          
25       O      0.907378000000     0.467398666667     0.666668333333     0          
26       C      0.901687333333     0.447006666667     0.666668666667     0          
27       C      0.913060000000     0.449327333333     0.666668333333     0          
28       N      0.922447666667     0.461588333333     0.666666666667     0          
29       C      0.891574333333     0.434603666667     0.666668000000     0          
30       O      0.893943666667     0.426288333333     0.666669000000     0          
31       C      0.879017333333     0.431827000000     0.999999666667     0          
32       C      0.870102666667     0.420512000000     0.999999333333     0          
33       N      0.871908000000     0.410467666667     0.666666666667     0          
34       H      0.891847666667     0.472590666667     0.666667000000     0          
35       H      0.915467333333     0.442440000000     0.666669333333     0          
36       H      0.861074666667     0.418896333333     0.999999000000     0          
37       C      0.801478666667     0.531342666667     0.666666666667     0          
38       C      0.789766666667     0.526915000000     0.686755333333     0          
39       C      0.787525333333     0.520114666667     0.744027333333     0          
40       C      0.797651333333     0.519763000000     0.765582666667     0          
41       C      0.798388666667     0.513593000000     0.821530333333     0          
42       C      0.789263666667     0.502907000000     0.846202000000     0          
43       C      0.792881000000     0.499201666667     0.902158333333     0          
44       C      0.804662333333     0.507225666667     0.919118333333     0          
45       C      0.811658333333     0.506659000000     0.973205666667     0          
46       C      0.818572666667     0.500720666667     0.969472000000     0          
47       C      0.819391000000     0.495108666667     0.913633666667     0          
48       C      0.826328000000     0.489484666667     0.911965000000     0          
49       C      0.832693000000     0.489223666667     0.966122666667     0          
50       C      0.839942333333     0.483620333333     0.966473666667     0          
51       C      0.841225666667     0.477515666667     0.910432000000     0          
52       C      0.833756666667     0.465892333333     0.890022666667     0          
53       C      0.838170333333     0.463216000000     0.833433666667     0          
54       C      0.848814000000     0.472884666667     0.811566333333     0          
55       C      0.855763000000     0.473420000000     0.755931666667     0          
56       C      0.863371333333     0.483445000000     0.719921000000     0          
57       C      0.868804333333     0.480668333333     0.667921333333     0          
58       C      0.865188000000     0.468657333333     0.666666666667     0          
59       S      0.855462333333     0.460772333333     0.725862000000     0          
60       S      0.853361333333     0.485079666667     0.860945666667     0          
61       C      0.846056666667     0.483698666667     0.688387000000     0          
62       C      0.844805000000     0.489292666667     0.741275000000     0          
63       N      0.837997333333     0.494656333333     0.742398333333     0          
64       C      0.831939000000     0.494797666667     0.689499666667     0          
65       C      0.824905000000     0.500522000000     0.691167000000     0          
66       N      0.824223333333     0.505845000000     0.745689000000     0          
67       C      0.817607666667     0.511409000000     0.747748666667     0          
68       C      0.811213333333     0.512054000000     0.696657333333     0          
69       S      0.811164333333     0.519160333333     0.867942666667     0          
70       S      0.809729666667     0.527597333333     0.715043000000     0          
71       H      0.783105666667     0.528377333333     0.995600333333     0          
72       H      0.778876333333     0.515805333333     0.768475666667     0          
73       H      0.780380333333     0.497816666667     0.824756000000     0          
74       H      0.787122000000     0.491051000000     0.928550333333     0          
75       H      0.814679333333     0.495098666667     0.870341333333     0          
76       H      0.826740333333     0.485362666667     0.867400000000     0          
77       H      0.825542000000     0.459576000000     0.914498666667     0          
78       H      0.833635333333     0.454534000000     0.809885666667     0          
79       H      0.864947666667     0.492422000000     0.729820666667     0          
80       H      0.874989666667     0.487198666667     0.967268666667     0          
81       H      0.851661666667     0.479506000000     0.690162333333     0          
82       H      0.849354333333     0.489667000000     0.785698000000     0          
83       H      0.817635666667     0.515445333333     0.793278333333     0          
84       H      0.806023666667     0.516657666667     0.700981000000     0          
85       C      0.801935666667     0.603919000000     0.666666666667     0          
86       C      0.806453000000     0.596725333333     0.686755333333     0          
87       C      0.813294000000     0.601264666667     0.744027333333     0          
88       C      0.813585000000     0.611638666667     0.765582666667     0          
89       C      0.819775000000     0.618501000000     0.821530333333     0          
90       C      0.830559333333     0.620087666667     0.846202000000     0          
91       C      0.834257333333     0.627351333333     0.902158333333     0          
92       C      0.826129000000     0.631040000000     0.919118333333     0          
93       C      0.826655000000     0.638529000000     0.973205666667     0          
94       C      0.832574333333     0.651275666667     0.969472000000     0          
95       C      0.838203666667     0.657663333333     0.913633666667     0          
96       C      0.843807333333     0.336787000000     0.911965000000     0          
97       C      0.844030000000     0.343347333333     0.966122666667     0          
98       C      0.849611333333     0.356093333333     0.966473666667     0          
99       C      0.855732333333     0.363431000000     0.910432000000     0          
100      C      0.867447666667     0.367589000000     0.890022666667     0          
101      C      0.870107666667     0.374618000000     0.833433666667     0          
102      C      0.860335000000     0.375545333333     0.811566333333     0          
103      C      0.859755000000     0.381893000000     0.755931666667     0          
104      C      0.849643666667     0.379461333333     0.719921000000     0          
105      C      0.852397666667     0.387599333333     0.667921333333     0          
106      C      0.864479000000     0.395957000000     0.666666666667     0          
107      S      0.872454666667     0.394165333333     0.725862000000     0          
108      S      0.848063666667     0.367927333333     0.860945666667     0          
109      C      0.849495333333     0.362068333333     0.688387000000     0          
110      C      0.843886666667     0.355269666667     0.741275000000     0          
111      N      0.838543333333     0.343199333333     0.742398333333     0          
112      C      0.838438666667     0.337061333333     0.689499666667     0          
113      C      0.832735000000     0.657742000000     0.691167000000     0          
114      N      0.827395000000     0.651777000000     0.745689000000     0          
115      C      0.821849666667     0.639698000000     0.747748666667     0          
116      C      0.821241000000     0.632726333333     0.696657333333     0          
117      S      0.814107000000     0.625615333333     0.867942666667     0          
118      S      0.805645333333     0.615809666667     0.715043000000     0          
119      H      0.805025666667     0.588677333333     0.995600333333     0          
120      H      0.817673666667     0.596985666667     0.768475666667     0          
121      H      0.835724333333     0.616352666667     0.824756000000     0          
122      H      0.842475666667     0.629750666667     0.928550333333     0          
123      H      0.838242333333     0.653009000000     0.870341333333     0          
124      H      0.847943000000     0.341291666667     0.867400000000     0          
125      H      0.873839666667     0.365734000000     0.914498666667     0          
126      H      0.878851666667     0.378757333333     0.809885666667     0          
127      H      0.840621000000     0.372099666667     0.729820666667     0          
128      H      0.845803666667     0.387232666667     0.967268666667     0          
129      H      0.853670000000     0.371783666667     0.690162333333     0          
130      H      0.843483000000     0.359401333333     0.785698000000     0          
131      H      0.817797000000     0.635713666667     0.793278333333     0          
132      H      0.816651000000     0.623013333333     0.700981000000     0          
133      C      0.729731000000     0.531218333333     0.666666666667     0          
134      C      0.736925666667     0.542840333333     0.686755333333     0          
135      C      0.732326000000     0.545100666667     0.744027333333     0          
136      C      0.721909000000     0.535078666667     0.765582666667     0          
137      C      0.714981666667     0.534386333333     0.821530333333     0          
138      C      0.713322333333     0.543485333333     0.846202000000     0          
139      C      0.706007333333     0.539927333333     0.902158333333     0          
140      C      0.702353666667     0.528214666667     0.919118333333     0          
141      C      0.694832000000     0.521292333333     0.973205666667     0          
142      C      0.681998333333     0.514484000000     0.969472000000     0          
143      C      0.675551000000     0.513708333333     0.913633666667     0          
144      C      0.996343333333     0.506875333333     0.911965000000     0          
145      C      0.989755333333     0.500575666667     0.966122666667     0          
146      C      0.976924666667     0.493433333333     0.966473666667     0          
147      C      0.969520333333     0.492200666667     0.910432000000     0          
148      C      0.965274000000     0.499666000000     0.890022666667     0          
149      C      0.958200666667     0.495313000000     0.833433666667     0          
150      C      0.957329666667     0.484716666667     0.811566333333     0          
151      C      0.950960333333     0.477834000000     0.755931666667     0          
152      C      0.953463666667     0.470240666667     0.719921000000     0          
153      C      0.945276666667     0.464879333333     0.667921333333     0          
154      C      0.936811666667     0.468533000000     0.666666666667     0          
155      S      0.938561666667     0.478209666667     0.725862000000     0          
156      S      0.965053333333     0.480140000000     0.860945666667     0          
157      C      0.970926666667     0.487380000000     0.688387000000     0          
158      C      0.977786666667     0.488584666667     0.741275000000     0          
159      N      0.989938000000     0.495291333333     0.742398333333     0          
160      C      0.996100666667     0.501288000000     0.689499666667     0          
161      C      0.675505333333     0.508216333333     0.691167000000     0          
162      N      0.681526666667     0.508858333333     0.745689000000     0          
163      C      0.693688000000     0.515373666667     0.747748666667     0          
164      C      0.700690666667     0.521699666667     0.696657333333     0          
165      S      0.707874000000     0.521704666667     0.867942666667     0          
166      S      0.717770333333     0.523073333333     0.715043000000     0          
167      H      0.745014000000     0.549425333333     0.995600333333     0          
168      H      0.736595333333     0.553689333333     0.768475666667     0          
169      H      0.717040666667     0.552311000000     0.824756000000     0          
170      H      0.703547666667     0.545678666667     0.928550333333     0          
171      H      0.680223333333     0.518372666667     0.870341333333     0          
172      H      0.991795333333     0.506492333333     0.867400000000     0          
173      H      0.967097000000     0.507837000000     0.914498666667     0          
174      H      0.953991333333     0.499855666667     0.809885666667     0          
175      H      0.960910000000     0.468625000000     0.729820666667     0          
176      H      0.945685333333     0.458715666667     0.967268666667     0          
177      H      0.961147000000     0.481857000000     0.690162333333     0          
178      H      0.973641000000     0.484078666667     0.785698000000     0          
179      H      0.697713000000     0.515321333333     0.793278333333     0          
180      H      0.710470666667     0.526809333333     0.700981000000     0          
1        C      0.789966666667     0.891433333333     0.333331666667     0          
2        O      0.800653333333     0.893304333333     0.333330333333     0          
3        C      0.780318666667     0.878930333333     0.333332666667     0          
4        C      0.782205333333     0.869714333333     0.000000000000     0          
5        N      0.794167666667     0.871869333333     0.000000000000     0          
6        C      0.767960000000     0.876711000000     0.000001000000     0          
7        O      0.759288666667     0.865934666667     0.000001666667     0          
8        C      0.764979333333     0.886326666667     0.000002000000     0          
9        C      0.753606666667     0.884006000000     0.000001666667     0          
10       N      0.744219000000     0.871745000000     0.000000000000     0          
11       C      0.775092333333     0.898729666667     0.000001333333     0          
12       O      0.772723000000     0.907045000000     0.000002333333     0          
13       C      0.787649333333     0.901506333333     0.333333000000     0          
14       C      0.796564000000     0.912821333333     0.333332666667     0          
15       N      0.794758666667     0.922865666667     0.000000000000     0          
16       H      0.774819000000     0.860742666667     0.000000333333     0          
17       H      0.751199333333     0.890893333333     0.000002666667     0          
18       H      0.805592000000     0.914437000000     0.333332333333     0          
19       C      0.876700000000     0.775233333333     0.333331666667     0          
20       O      0.866013333333     0.773362333333     0.333330333333     0          
21       C      0.886348000000     0.787736333333     0.333332666667     0          
22       C      0.884461333333     0.796952333333     0.000000000000     0          
23       N      0.872499000000     0.794797333333     0.000000000000     0          
24       C      0.898706666667     0.789955666667     0.000001000000     0          
25       O      0.907378000000     0.800732000000     0.000001666667     0          
26       C      0.901687333333     0.780340000000     0.000002000000     0          
27       C      0.913060000000     0.782660666667     0.000001666667     0          
28       N      0.922447666667     0.794921666667     0.000000000000     0          
29       C      0.891574333333     0.767937000000     0.000001333333     0          
30       O      0.893943666667     0.759621666667     0.000002333333     0          
31       C      0.879017333333     0.765160333333     0.333333000000     0          
32       C      0.870102666667     0.753845333333     0.333332666667     0          
33       N      0.871908000000     0.743801000000     0.000000000000     0          
34       H      0.891847666667     0.805924000000     0.000000333333     0          
35       H      0.915467333333     0.775773333333     0.000002666667     0          
36       H      0.861074666667     0.752229666667     0.333332333333     0          
37       C      0.801478666667     0.864676000000     0.000000000000     0          
38       C      0.789766666667     0.860248333333     0.020088666667     0          
39       C      0.787525333333     0.853448000000     0.077360666667     0          
40       C      0.797651333333     0.853096333333     0.098916000000     0          
41       C      0.798388666667     0.846926333333     0.154863666667     0          
42       C      0.789263666667     0.836240333333     0.179535333333     0          
43       C      0.792881000000     0.832535000000     0.235491666667     0          
44       C      0.804662333333     0.840559000000     0.252451666667     0          
45       C      0.811658333333     0.839992333333     0.306539000000     0          
46       C      0.818572666667     0.834054000000     0.302805333333     0          
47       C      0.819391000000     0.828442000000     0.246967000000     0          
48       C      0.826328000000     0.822818000000     0.245298333333     0          
49       C      0.832693000000     0.822557000000     0.299456000000     0          
50       C      0.839942333333     0.816953666667     0.299807000000     0          
51       C      0.841225666667     0.810849000000     0.243765333333     0          
52       C      0.833756666667     0.799225666667     0.223356000000     0          
53       C      0.838170333333     0.796549333333     0.166767000000     0          
54       C      0.848814000000     0.806218000000     0.144899666667     0          
55       C      0.855763000000     0.806753333333     0.089265000000     0          
56       C      0.863371333333     0.816778333333     0.053254333333     0          
57       C      0.868804333333     0.814001666667     0.001254666667     0          
58       C      0.865188000000     0.801990666667     0.000000000000     0          
59       S      0.855462333333     0.794105666667     0.059195333333     0          
60       S      0.853361333333     0.818413000000     0.194279000000     0          
61       C      0.846056666667     0.817032000000     0.021720333333     0          
62       C      0.844805000000     0.822626000000     0.074608333333     0          
63       N      0.837997333333     0.827989666667     0.075731666667     0          
64       C      0.831939000000     0.828131000000     0.022833000000     0          
65       C      0.824905000000     0.833855333333     0.024500333333     0          
66       N      0.824223333333     0.839178333333     0.079022333333     0          
67       C      0.817607666667     0.844742333333     0.081082000000     0          
68       C      0.811213333333     0.845387333333     0.029990666667     0          
69       S      0.811164333333     0.852493666667     0.201276000000     0          
70       S      0.809729666667     0.860930666667     0.048376333333     0          
71       H      0.783105666667     0.861710666667     0.328933666667     0          
72       H      0.778876333333     0.849138666667     0.101809000000     0          
73       H      0.780380333333     0.831150000000     0.158089333333     0          
74       H      0.787122000000     0.824384333333     0.261883666667     0          
75       H      0.814679333333     0.828432000000     0.203674666667     0          
76       H      0.826740333333     0.818696000000     0.200733333333     0          
77       H      0.825542000000     0.792909333333     0.247832000000     0          
78       H      0.833635333333     0.787867333333     0.143219000000     0          
79       H      0.864947666667     0.825755333333     0.063154000000     0          
80       H      0.874989666667     0.820532000000     0.300602000000     0          
81       H      0.851661666667     0.812839333333     0.023495666667     0          
82       H      0.849354333333     0.823000333333     0.119031333333     0          
83       H      0.817635666667     0.848778666667     0.126611666667     0          
84       H      0.806023666667     0.849991000000     0.034314333333     0          
85       C      0.801935666667     0.937252333333     0.000000000000     0          
86       C      0.806453000000     0.930058666667     0.020088666667     0          
87       C      0.813294000000     0.934598000000     0.077360666667     0          
88       C      0.813585000000     0.944972000000     0.098916000000     0          
89       C      0.819775000000     0.951834333333     0.154863666667     0          
90       C      0.830559333333     0.953421000000     0.179535333333     0          
91       C      0.834257333333     0.960684666667     0.235491666667     0          
92       C      0.826129000000     0.964373333333     0.252451666667     0          
93       C      0.826655000000     0.971862333333     0.306539000000     0          
94       C      0.832574333333     0.984609000000     0.302805333333     0          
95       C      0.838203666667     0.990996666667     0.246967000000     0          
96       C      0.843807333333     0.670120333333     0.245298333333     0          
97       C      0.844030000000     0.676680666667     0.299456000000     0          
98       C      0.849611333333     0.689426666667     0.299807000000     0          
99       C      0.855732333333     0.696764333333     0.243765333333     0          
100      C      0.867447666667     0.700922333333     0.223356000000     0          
101      C      0.870107666667     0.707951333333     0.166767000000     0          
102      C      0.860335000000     0.708878666667     0.144899666667     0          
103      C      0.859755000000     0.715226333333     0.089265000000     0          
104      C      0.849643666667     0.712794666667     0.053254333333     0          
105      C      0.852397666667     0.720932666667     0.001254666667     0          
106      C      0.864479000000     0.729290333333     0.000000000000     0          
107      S      0.872454666667     0.727498666667     0.059195333333     0          
108      S      0.848063666667     0.701260666667     0.194279000000     0          
109      C      0.849495333333     0.695401666667     0.021720333333     0          
110      C      0.843886666667     0.688603000000     0.074608333333     0          
111      N      0.838543333333     0.676532666667     0.075731666667     0          
112      C      0.838438666667     0.670394666667     0.022833000000     0          
113      C      0.832735000000     0.991075333333     0.024500333333     0          
114      N      0.827395000000     0.985110333333     0.079022333333     0          
115      C      0.821849666667     0.973031333333     0.081082000000     0          
116      C      0.821241000000     0.966059666667     0.029990666667     0          
117      S      0.814107000000     0.958948666667     0.201276000000     0          
118      S      0.805645333333     0.949143000000     0.048376333333     0          
119      H      0.805025666667     0.922010666667     0.328933666667     0          
120      H      0.817673666667     0.930319000000     0.101809000000     0          
121      H      0.835724333333     0.949686000000     0.158089333333     0          
122      H      0.842475666667     0.963084000000     0.261883666667     0          
123      H      0.838242333333     0.986342333333     0.203674666667     0          
124      H      0.847943000000     0.674625000000     0.200733333333     0          
125      H      0.873839666667     0.699067333333     0.247832000000     0          
126      H      0.878851666667     0.712090666667     0.143219000000     0          
127      H      0.840621000000     0.705433000000     0.063154000000     0          
128      H      0.845803666667     0.720566000000     0.300602000000     0          
129      H      0.853670000000     0.705117000000     0.023495666667     0          
130      H      0.843483000000     0.692734666667     0.119031333333     0          
131      H      0.817797000000     0.969047000000     0.126611666667     0          
132      H      0.816651000000     0.956346666667     0.034314333333     0          
133      C      0.729731000000     0.864551666667     0.000000000000     0          
134      C      0.736925666667     0.876173666667     0.020088666667     0          
135      C      0.732326000000     0.878434000000     0.077360666667     0          
136      C      0.721909000000     0.868412000000     0.098916000000     0          
137      C      0.714981666667     0.867719666667     0.154863666667     0          
138      C      0.713322333333     0.876818666667     0.179535333333     0          
139      C      0.706007333333     0.873260666667     0.235491666667     0          
140      C      0.702353666667     0.861548000000     0.252451666667     0          
141      C      0.694832000000     0.854625666667     0.306539000000     0          
142      C      0.681998333333     0.847817333333     0.302805333333     0          
143      C      0.675551000000     0.847041666667     0.246967000000     0          
144      C      0.996343333333     0.840208666667     0.245298333333     0          
145      C      0.989755333333     0.833909000000     0.299456000000     0          
146      C      0.976924666667     0.826766666667     0.299807000000     0          
147      C      0.969520333333     0.825534000000     0.243765333333     0          
148      C      0.965274000000     0.832999333333     0.223356000000     0          
149      C      0.958200666667     0.828646333333     0.166767000000     0          
150      C      0.957329666667     0.818050000000     0.144899666667     0          
151      C      0.950960333333     0.811167333333     0.089265000000     0          
152      C      0.953463666667     0.803574000000     0.053254333333     0          
153      C      0.945276666667     0.798212666667     0.001254666667     0          
154      C      0.936811666667     0.801866333333     0.000000000000     0          
155      S      0.938561666667     0.811543000000     0.059195333333     0          
156      S      0.965053333333     0.813473333333     0.194279000000     0          
157      C      0.970926666667     0.820713333333     0.021720333333     0          
158      C      0.977786666667     0.821918000000     0.074608333333     0          
159      N      0.989938000000     0.828624666667     0.075731666667     0          
160      C      0.996100666667     0.834621333333     0.022833000000     0          
161      C      0.675505333333     0.841549666667     0.024500333333     0          
162      N      0.681526666667     0.842191666667     0.079022333333     0          
163      C      0.693688000000     0.848707000000     0.081082000000     0          
164      C      0.700690666667     0.855033000000     0.029990666667     0          
165      S      0.707874000000     0.855038000000     0.201276000000     0          
166      S      0.717770333333     0.856406666667     0.048376333333     0          
167      H      0.745014000000     0.882758666667     0.328933666667     0          
168      H      0.736595333333     0.887022666667     0.101809000000     0          
169      H      0.717040666667     0.885644333333     0.158089333333     0          
170      H      0.703547666667     0.879012000000     0.261883666667     0          
171      H      0.680223333333     0.851706000000     0.203674666667     0          
172      H      0.991795333333     0.839825666667     0.200733333333     0          
173      H      0.967097000000     0.841170333333     0.247832000000     0          
174      H      0.953991333333     0.833189000000     0.143219000000     0          
175      H      0.960910000000     0.801958333333     0.063154000000     0          
176      H      0.945685333333     0.792049000000     0.300602000000     0          
177      H      0.961147000000     0.815190333333     0.023495666667     0          
178      H      0.973641000000     0.817412000000     0.119031333333     0          
179      H      0.697713000000     0.848654666667     0.126611666667     0          
180      H      0.710470666667     0.860142666667     0.034314333333     0          
1        C      0.789966666667     0.891433333333     0.666665000000     0          
2        O      0.800653333333     0.893304333333     0.666663666667     0          
3        C      0.780318666667     0.878930333333     0.666666000000     0          
4        C      0.782205333333     0.869714333333     0.333333333333     0          
5        N      0.794167666667     0.871869333333     0.333333333333     0          
6        C      0.767960000000     0.876711000000     0.333334333333     0          
7        O      0.759288666667     0.865934666667     0.333335000000     0          
8        C      0.764979333333     0.886326666667     0.333335333333     0          
9        C      0.753606666667     0.884006000000     0.333335000000     0          
10       N      0.744219000000     0.871745000000     0.333333333333     0          
11       C      0.775092333333     0.898729666667     0.333334666667     0          
12       O      0.772723000000     0.907045000000     0.333335666667     0          
13       C      0.787649333333     0.901506333333     0.666666333333     0          
14       C      0.796564000000     0.912821333333     0.666666000000     0          
15       N      0.794758666667     0.922865666667     0.333333333333     0          
16       H      0.774819000000     0.860742666667     0.333333666667     0          
17       H      0.751199333333     0.890893333333     0.333336000000     0          
18       H      0.805592000000     0.914437000000     0.666665666667     0          
19       C      0.876700000000     0.775233333333     0.666665000000     0          
20       O      0.866013333333     0.773362333333     0.666663666667     0          
21       C      0.886348000000     0.787736333333     0.666666000000     0          
22       C      0.884461333333     0.796952333333     0.333333333333     0          
23       N      0.872499000000     0.794797333333     0.333333333333     0          
24       C      0.898706666667     0.789955666667     0.333334333333     0          
25       O      0.907378000000     0.800732000000     0.333335000000     0          
26       C      0.901687333333     0.780340000000     0.333335333333     0          
27       C      0.913060000000     0.782660666667     0.333335000000     0          
28       N      0.922447666667     0.794921666667     0.333333333333     0          
29       C      0.891574333333     0.767937000000     0.333334666667     0          
30       O      0.893943666667     0.759621666667     0.333335666667     0          
31       C      0.879017333333     0.765160333333     0.666666333333     0          
32       C      0.870102666667     0.753845333333     0.666666000000     0          
33       N      0.871908000000     0.743801000000     0.333333333333     0          
34       H      0.891847666667     0.805924000000     0.333333666667     0          
35       H      0.915467333333     0.775773333333     0.333336000000     0          
36       H      0.861074666667     0.752229666667     0.666665666667     0          
37       C      0.801478666667     0.864676000000     0.333333333333     0          
38       C      0.789766666667     0.860248333333     0.353422000000     0          
39       C      0.787525333333     0.853448000000     0.410694000000     0          
40       C      0.797651333333     0.853096333333     0.432249333333     0          
41       C      0.798388666667     0.846926333333     0.488197000000     0          
42       C      0.789263666667     0.836240333333     0.512868666667     0          
43       C      0.792881000000     0.832535000000     0.568825000000     0          
44       C      0.804662333333     0.840559000000     0.585785000000     0          
45       C      0.811658333333     0.839992333333     0.639872333333     0          
46       C      0.818572666667     0.834054000000     0.636138666667     0          
47       C      0.819391000000     0.828442000000     0.580300333333     0          
48       C      0.826328000000     0.822818000000     0.578631666667     0          
49       C      0.832693000000     0.822557000000     0.632789333333     0          
50       C      0.839942333333     0.816953666667     0.633140333333     0          
51       C      0.841225666667     0.810849000000     0.577098666667     0          
52       C      0.833756666667     0.799225666667     0.556689333333     0          
53       C      0.838170333333     0.796549333333     0.500100333333     0          
54       C      0.848814000000     0.806218000000     0.478233000000     0          
55       C      0.855763000000     0.806753333333     0.422598333333     0          
56       C      0.863371333333     0.816778333333     0.386587666667     0          
57       C      0.868804333333     0.814001666667     0.334588000000     0          
58       C      0.865188000000     0.801990666667     0.333333333333     0          
59       S      0.855462333333     0.794105666667     0.392528666667     0          
60       S      0.853361333333     0.818413000000     0.527612333333     0          
61       C      0.846056666667     0.817032000000     0.355053666667     0          
62       C      0.844805000000     0.822626000000     0.407941666667     0          
63       N      0.837997333333     0.827989666667     0.409065000000     0          
64       C      0.831939000000     0.828131000000     0.356166333333     0          
65       C      0.824905000000     0.833855333333     0.357833666667     0          
66       N      0.824223333333     0.839178333333     0.412355666667     0          
67       C      0.817607666667     0.844742333333     0.414415333333     0          
68       C      0.811213333333     0.845387333333     0.363324000000     0          
69       S      0.811164333333     0.852493666667     0.534609333333     0          
70       S      0.809729666667     0.860930666667     0.381709666667     0          
71       H      0.783105666667     0.861710666667     0.662267000000     0          
72       H      0.778876333333     0.849138666667     0.435142333333     0          
73       H      0.780380333333     0.831150000000     0.491422666667     0          
74       H      0.787122000000     0.824384333333     0.595217000000     0          
75       H      0.814679333333     0.828432000000     0.537008000000     0          
76       H      0.826740333333     0.818696000000     0.534066666667     0          
77       H      0.825542000000     0.792909333333     0.581165333333     0          
78       H      0.833635333333     0.787867333333     0.476552333333     0          
79       H      0.864947666667     0.825755333333     0.396487333333     0          
80       H      0.874989666667     0.820532000000     0.633935333333     0          
81       H      0.851661666667     0.812839333333     0.356829000000     0          
82       H      0.849354333333     0.823000333333     0.452364666667     0          
83       H      0.817635666667     0.848778666667     0.459945000000     0          
84       H      0.806023666667     0.849991000000     0.367647666667     0          
85       C      0.801935666667     0.937252333333     0.333333333333     0          
86       C      0.806453000000     0.930058666667     0.353422000000     0          
87       C      0.813294000000     0.934598000000     0.410694000000     0          
88       C      0.813585000000     0.944972000000     0.432249333333     0          
89       C      0.819775000000     0.951834333333     0.488197000000     0          
90       C      0.830559333333     0.953421000000     0.512868666667     0          
91       C      0.834257333333     0.960684666667     0.568825000000     0          
92       C      0.826129000000     0.964373333333     0.585785000000     0          
93       C      0.826655000000     0.971862333333     0.639872333333     0          
94       C      0.832574333333     0.984609000000     0.636138666667     0          
95       C      0.838203666667     0.990996666667     0.580300333333     0          
96       C      0.843807333333     0.670120333333     0.578631666667     0          
97       C      0.844030000000     0.676680666667     0.632789333333     0          
98       C      0.849611333333     0.689426666667     0.633140333333     0          
99       C      0.855732333333     0.696764333333     0.577098666667     0          
100      C      0.867447666667     0.700922333333     0.556689333333     0          
101      C      0.870107666667     0.707951333333     0.500100333333     0          
102      C      0.860335000000     0.708878666667     0.478233000000     0          
103      C      0.859755000000     0.715226333333     0.422598333333     0          
104      C      0.849643666667     0.712794666667     0.386587666667     0          
105      C      0.852397666667     0.720932666667     0.334588000000     0          
106      C      0.864479000000     0.729290333333     0.333333333333     0          
107      S      0.872454666667     0.727498666667     0.392528666667     0          
108      S      0.848063666667     0.701260666667     0.527612333333     0          
109      C      0.849495333333     0.695401666667     0.355053666667     0          
110      C      0.843886666667     0.688603000000     0.407941666667     0          
111      N      0.838543333333     0.676532666667     0.409065000000     0          
112      C      0.838438666667     0.670394666667     0.356166333333     0          
113      C      0.832735000000     0.991075333333     0.357833666667     0          
114      N      0.827395000000     0.985110333333     0.412355666667     0          
115      C      0.821849666667     0.973031333333     0.414415333333     0          
116      C      0.821241000000     0.966059666667     0.363324000000     0          
117      S      0.814107000000     0.958948666667     0.534609333333     0          
118      S      0.805645333333     0.949143000000     0.381709666667     0          
119      H      0.805025666667     0.922010666667     0.662267000000     0          
120      H      0.817673666667     0.930319000000     0.435142333333     0          
121      H      0.835724333333     0.949686000000     0.491422666667     0          
122      H      0.842475666667     0.963084000000     0.595217000000     0          
123      H      0.838242333333     0.986342333333     0.537008000000     0          
124      H      0.847943000000     0.674625000000     0.534066666667     0          
125      H      0.873839666667     0.699067333333     0.581165333333     0          
126      H      0.878851666667     0.712090666667     0.476552333333     0          
127      H      0.840621000000     0.705433000000     0.396487333333     0          
128      H      0.845803666667     0.720566000000     0.633935333333     0          
129      H      0.853670000000     0.705117000000     0.356829000000     0          
130      H      0.843483000000     0.692734666667     0.452364666667     0          
131      H      0.817797000000     0.969047000000     0.459945000000     0          
132      H      0.816651000000     0.956346666667     0.367647666667     0          
133      C      0.729731000000     0.864551666667     0.333333333333     0          
134      C      0.736925666667     0.876173666667     0.353422000000     0          
135      C      0.732326000000     0.878434000000     0.410694000000     0          
136      C      0.721909000000     0.868412000000     0.432249333333     0          
137      C      0.714981666667     0.867719666667     0.488197000000     0          
138      C      0.713322333333     0.876818666667     0.512868666667     0          
139      C      0.706007333333     0.873260666667     0.568825000000     0          
140      C      0.702353666667     0.861548000000     0.585785000000     0          
141      C      0.694832000000     0.854625666667     0.639872333333     0          
142      C      0.681998333333     0.847817333333     0.636138666667     0          
143      C      0.675551000000     0.847041666667     0.580300333333     0          
144      C      0.996343333333     0.840208666667     0.578631666667     0          
145      C      0.989755333333     0.833909000000     0.632789333333     0          
146      C      0.976924666667     0.826766666667     0.633140333333     0          
147      C      0.969520333333     0.825534000000     0.577098666667     0          
148      C      0.965274000000     0.832999333333     0.556689333333     0          
149      C      0.958200666667     0.828646333333     0.500100333333     0          
150      C      0.957329666667     0.818050000000     0.478233000000     0          
151      C      0.950960333333     0.811167333333     0.422598333333     0          
152      C      0.953463666667     0.803574000000     0.386587666667     0          
153      C      0.945276666667     0.798212666667     0.334588000000     0          
154      C      0.936811666667     0.801866333333     0.333333333333     0          
155      S      0.938561666667     0.811543000000     0.392528666667     0          
156      S      0.965053333333     0.813473333333     0.527612333333     0          
157      C      0.970926666667     0.820713333333     0.355053666667     0          
158      C      0.977786666667     0.821918000000     0.407941666667     0          
159      N      0.989938000000     0.828624666667     0.409065000000     0          
160      C      0.996100666667     0.834621333333     0.356166333333     0          
161      C      0.675505333333     0.841549666667     0.357833666667     0          
162      N      0.681526666667     0.842191666667     0.412355666667     0          
163      C      0.693688000000     0.848707000000     0.414415333333     0          
164      C      0.700690666667     0.855033000000     0.363324000000     0          
165      S      0.707874000000     0.855038000000     0.534609333333     0          
166      S      0.717770333333     0.856406666667     0.381709666667     0          
167      H      0.745014000000     0.882758666667     0.662267000000     0          
168      H      0.736595333333     0.887022666667     0.435142333333     0          
169      H      0.717040666667     0.885644333333     0.491422666667     0          
170      H      0.703547666667     0.879012000000     0.595217000000     0          
171      H      0.680223333333     0.851706000000     0.537008000000     0          
172      H      0.991795333333     0.839825666667     0.534066666667     0          
173      H      0.967097000000     0.841170333333     0.581165333333     0          
174      H      0.953991333333     0.833189000000     0.476552333333     0          
175      H      0.960910000000     0.801958333333     0.396487333333     0          
176      H      0.945685333333     0.792049000000     0.633935333333     0          
177      H      0.961147000000     0.815190333333     0.356829000000     0          
178      H      0.973641000000     0.817412000000     0.452364666667     0          
179      H      0.697713000000     0.848654666667     0.459945000000     0          
180      H      0.710470666667     0.860142666667     0.367647666667     0          
1        C      0.789966666667     0.891433333333     0.999998333333     0          
2        O      0.800653333333     0.893304333333     0.999997000000     0          
3        C      0.780318666667     0.878930333333     0.999999333333     0          
4        C      0.782205333333     0.869714333333     0.666666666667     0          
5        N      0.794167666667     0.871869333333     0.666666666667     0          
6        C      0.767960000000     0.876711000000     0.666667666667     0          
7        O      0.759288666667     0.865934666667     0.666668333333     0          
8        C      0.764979333333     0.886326666667     0.666668666667     0          
9        C      0.753606666667     0.884006000000     0.666668333333     0          
10       N      0.744219000000     0.871745000000     0.666666666667     0          
11       C      0.775092333333     0.898729666667     0.666668000000     0          
12       O      0.772723000000     0.907045000000     0.666669000000     0          
13       C      0.787649333333     0.901506333333     0.999999666667     0          
14       C      0.796564000000     0.912821333333     0.999999333333     0          
15       N      0.794758666667     0.922865666667     0.666666666667     0          
16       H      0.774819000000     0.860742666667     0.666667000000     0          
17       H      0.751199333333     0.890893333333     0.666669333333     0          
18       H      0.805592000000     0.914437000000     0.999999000000     0          
19       C      0.876700000000     0.775233333333     0.999998333333     0          
20       O      0.866013333333     0.773362333333     0.999997000000     0          
21       C      0.886348000000     0.787736333333     0.999999333333     0          
22       C      0.884461333333     0.796952333333     0.666666666667     0          
23       N      0.872499000000     0.794797333333     0.666666666667     0          
24       C      0.898706666667     0.789955666667     0.666667666667     0          
25       O      0.907378000000     0.800732000000     0.666668333333     0          
26       C      0.901687333333     0.780340000000     0.666668666667     0          
27       C      0.913060000000     0.782660666667     0.666668333333     0          
28       N      0.922447666667     0.794921666667     0.666666666667     0          
29       C      0.891574333333     0.767937000000     0.666668000000     0          
30       O      0.893943666667     0.759621666667     0.666669000000     0          
31       C      0.879017333333     0.765160333333     0.999999666667     0          
32       C      0.870102666667     0.753845333333     0.999999333333     0          
33       N      0.871908000000     0.743801000000     0.666666666667     0          
34       H      0.891847666667     0.805924000000     0.666667000000     0          
35       H      0.915467333333     0.775773333333     0.666669333333     0          
36       H      0.861074666667     0.752229666667     0.999999000000     0          
37       C      0.801478666667     0.864676000000     0.666666666667     0          
38       C      0.789766666667     0.860248333333     0.686755333333     0          
39       C      0.787525333333     0.853448000000     0.744027333333     0          
40       C      0.797651333333     0.853096333333     0.765582666667     0          
41       C      0.798388666667     0.846926333333     0.821530333333     0          
42       C      0.789263666667     0.836240333333     0.846202000000     0          
43       C      0.792881000000     0.832535000000     0.902158333333     0          
44       C      0.804662333333     0.840559000000     0.919118333333     0          
45       C      0.811658333333     0.839992333333     0.973205666667     0          
46       C      0.818572666667     0.834054000000     0.969472000000     0          
47       C      0.819391000000     0.828442000000     0.913633666667     0          
48       C      0.826328000000     0.822818000000     0.911965000000     0          
49       C      0.832693000000     0.822557000000     0.966122666667     0          
50       C      0.839942333333     0.816953666667     0.966473666667     0          
51       C      0.841225666667     0.810849000000     0.910432000000     0          
52       C      0.833756666667     0.799225666667     0.890022666667     0          
53       C      0.838170333333     0.796549333333     0.833433666667     0          
54       C      0.848814000000     0.806218000000     0.811566333333     0          
55       C      0.855763000000     0.806753333333     0.755931666667     0          
56       C      0.863371333333     0.816778333333     0.719921000000     0          
57       C      0.868804333333     0.814001666667     0.667921333333     0          
58       C      0.865188000000     0.801990666667     0.666666666667     0          
59       S      0.855462333333     0.794105666667     0.725862000000     0          
60       S      0.853361333333     0.818413000000     0.860945666667     0          
61       C      0.846056666667     0.817032000000     0.688387000000     0          
62       C      0.844805000000     0.822626000000     0.741275000000     0          
63       N      0.837997333333     0.827989666667     0.742398333333     0          
64       C      0.831939000000     0.828131000000     0.689499666667     0          
65       C      0.824905000000     0.833855333333     0.691167000000     0          
66       N      0.824223333333     0.839178333333     0.745689000000     0          
67       C      0.817607666667     0.844742333333     0.747748666667     0          
68       C      0.811213333333     0.845387333333     0.696657333333     0          
69       S      0.811164333333     0.852493666667     0.867942666667     0          
70       S      0.809729666667     0.860930666667     0.715043000000     0          
71       H      0.783105666667     0.861710666667     0.995600333333     0          
72       H      0.778876333333     0.849138666667     0.768475666667     0          
73       H      0.780380333333     0.831150000000     0.824756000000     0          
74       H      0.787122000000     0.824384333333     0.928550333333     0          
75       H      0.814679333333     0.828432000000     0.870341333333     0          
76       H      0.826740333333     0.818696000000     0.867400000000     0          
77       H      0.825542000000     0.792909333333     0.914498666667     0          
78       H      0.833635333333     0.787867333333     0.809885666667     0          
79       H      0.864947666667     0.825755333333     0.729820666667     0          
80       H      0.874989666667     0.820532000000     0.967268666667     0          
81       H      0.851661666667     0.812839333333     0.690162333333     0          
82       H      0.849354333333     0.823000333333     0.785698000000     0          
83       H      0.817635666667     0.848778666667     0.793278333333     0          
84       H      0.806023666667     0.849991000000     0.700981000000     0          
85       C      0.801935666667     0.937252333333     0.666666666667     0          
86       C      0.806453000000     0.930058666667     0.686755333333     0          
87       C      0.813294000000     0.934598000000     0.744027333333     0          
88       C      0.813585000000     0.944972000000     0.765582666667     0          
89       C      0.819775000000     0.951834333333     0.821530333333     0          
90       C      0.830559333333     0.953421000000     0.846202000000     0          
91       C      0.834257333333     0.960684666667     0.902158333333     0          
92       C      0.826129000000     0.964373333333     0.919118333333     0          
93       C      0.826655000000     0.971862333333     0.973205666667     0          
94       C      0.832574333333     0.984609000000     0.969472000000     0          
95       C      0.838203666667     0.990996666667     0.913633666667     0          
96       C      0.843807333333     0.670120333333     0.911965000000     0          
97       C      0.844030000000     0.676680666667     0.966122666667     0          
98       C      0.849611333333     0.689426666667     0.966473666667     0          
99       C      0.855732333333     0.696764333333     0.910432000000     0          
100      C      0.867447666667     0.700922333333     0.890022666667     0          
101      C      0.870107666667     0.707951333333     0.833433666667     0          
102      C      0.860335000000     0.708878666667     0.811566333333     0          
103      C      0.859755000000     0.715226333333     0.755931666667     0          
104      C      0.849643666667     0.712794666667     0.719921000000     0          
105      C      0.852397666667     0.720932666667     0.667921333333     0          
106      C      0.864479000000     0.729290333333     0.666666666667     0          
107      S      0.872454666667     0.727498666667     0.725862000000     0          
108      S      0.848063666667     0.701260666667     0.860945666667     0          
109      C      0.849495333333     0.695401666667     0.688387000000     0          
110      C      0.843886666667     0.688603000000     0.741275000000     0          
111      N      0.838543333333     0.676532666667     0.742398333333     0          
112      C      0.838438666667     0.670394666667     0.689499666667     0          
113      C      0.832735000000     0.991075333333     0.691167000000     0          
114      N      0.827395000000     0.985110333333     0.745689000000     0          
115      C      0.821849666667     0.973031333333     0.747748666667     0          
116      C      0.821241000000     0.966059666667     0.696657333333     0          
117      S      0.814107000000     0.958948666667     0.867942666667     0          
118      S      0.805645333333     0.949143000000     0.715043000000     0          
119      H      0.805025666667     0.922010666667     0.995600333333     0          
120      H      0.817673666667     0.930319000000     0.768475666667     0          
121      H      0.835724333333     0.949686000000     0.824756000000     0          
122      H      0.842475666667     0.963084000000     0.928550333333     0          
123      H      0.838242333333     0.986342333333     0.870341333333     0          
124      H      0.847943000000     0.674625000000     0.867400000000     0          
125      H      0.873839666667     0.699067333333     0.914498666667     0          
126      H      0.878851666667     0.712090666667     0.809885666667     0          
127      H      0.840621000000     0.705433000000     0.729820666667     0          
128      H      0.845803666667     0.720566000000     0.967268666667     0          
129      H      0.853670000000     0.705117000000     0.690162333333     0          
130      H      0.843483000000     0.692734666667     0.785698000000     0          
131      H      0.817797000000     0.969047000000     0.793278333333     0          
132      H      0.816651000000     0.956346666667     0.700981000000     0          
133      C      0.729731000000     0.864551666667     0.666666666667     0          
134      C      0.736925666667     0.876173666667     0.686755333333     0          
135      C      0.732326000000     0.878434000000     0.744027333333     0          
136      C      0.721909000000     0.868412000000     0.765582666667     0          
137      C      0.714981666667     0.867719666667     0.821530333333     0          
138      C      0.713322333333     0.876818666667     0.846202000000     0          
139      C      0.706007333333     0.873260666667     0.902158333333     0          
140      C      0.702353666667     0.861548000000     0.919118333333     0          
141      C      0.694832000000     0.854625666667     0.973205666667     0          
142      C      0.681998333333     0.847817333333     0.969472000000     0          
143      C      0.675551000000     0.847041666667     0.913633666667     0          
144      C      0.996343333333     0.840208666667     0.911965000000     0          
145      C      0.989755333333     0.833909000000     0.966122666667     0          
146      C      0.976924666667     0.826766666667     0.966473666667     0          
147      C      0.969520333333     0.825534000000     0.910432000000     0          
148      C      0.965274000000     0.832999333333     0.890022666667     0          
149      C      0.958200666667     0.828646333333     0.833433666667     0          
150      C      0.957329666667     0.818050000000     0.811566333333     0          
151      C      0.950960333333     0.811167333333     0.755931666667     0          
152      C      0.953463666667     0.803574000000     0.719921000000     0          
153      C      0.945276666667     0.798212666667     0.667921333333     0          
154      C      0.936811666667     0.801866333333     0.666666666667     0          
155      S      0.938561666667     0.811543000000     0.725862000000     0          
156      S      0.965053333333     0.813473333333     0.860945666667     0          
157      C      0.970926666667     0.820713333333     0.688387000000     0          
158      C      0.977786666667     0.821918000000     0.741275000000     0          
159      N      0.989938000000     0.828624666667     0.742398333333     0          
160      C      0.996100666667     0.834621333333     0.689499666667     0          
161      C      0.675505333333     0.841549666667     0.691167000000     0          
162      N      0.681526666667     0.842191666667     0.745689000000     0          
163      C      0.693688000000     0.848707000000     0.747748666667     0          
164      C      0.700690666667     0.855033000000     0.696657333333     0          
165      S      0.707874000000     0.855038000000     0.867942666667     0          
166      S      0.717770333333     0.856406666667     0.715043000000     0          
167      H      0.745014000000     0.882758666667     0.995600333333     0          
168      H      0.736595333333     0.887022666667     0.768475666667     0          
169      H      0.717040666667     0.885644333333     0.824756000000     0          
170      H      0.703547666667     0.879012000000     0.928550333333     0          
171      H      0.680223333333     0.851706000000     0.870341333333     0          
172      H      0.991795333333     0.839825666667     0.867400000000     0          
173      H      0.967097000000     0.841170333333     0.914498666667     0          
174      H      0.953991333333     0.833189000000     0.809885666667     0          
175      H      0.960910000000     0.801958333333     0.729820666667     0          
176      H      0.945685333333     0.792049000000     0.967268666667     0          
177      H      0.961147000000     0.815190333333     0.690162333333     0          
178      H      0.973641000000     0.817412000000     0.785698000000     0          
179      H      0.697713000000     0.848654666667     0.793278333333     0          
180      H      0.710470666667     0.860142666667     0.700981000000     0          


