data_1

_audit_creation_method RASPA-1.0
_audit_creation_date 2023-5-7
_audit_author_name ''

_cell_length_a    29.0834
_cell_length_b    29.0834
_cell_length_c    29.4081
_cell_angle_alpha 90
_cell_angle_beta  90
_cell_angle_gamma 120
_cell_volume      21542.1

_symmetry_cell_setting          triclinic
_symmetry_space_group_name_Hall 'P 1'
_symmetry_space_group_name_H-M  'P 1'
_symmetry_Int_Tables_number     1

_symmetry_equiv_pos_as_xyz 'x,y,z'

loop_
_atom_site_label
_atom_site_type_symbol
_atom_site_fract_x
_atom_site_fract_y
_atom_site_fract_z
_atom_site_charge
N1       N      0.139785000000     0.360215000000     0.129873333333     0          
C2       C      0.264230000000     0.235770000000     0.090350000000     0          
C3       C      0.263825000000     0.236175000000     0.173660000000     0          
C4       C      0.278280000000     0.221720000000     0.131983333333     0          
N5       N      0.276005000000     0.223995000000     0.214986666667     0          
N6       N      0.139785000000     0.279565000000     0.129873333333     0          
C7       C      0.264230000000     0.028465000000     0.090350000000     0          
C8       C      0.263825000000     0.027645000000     0.173660000000     0          
C9       C      0.278280000000     0.056560000000     0.131983333333     0          
N10      N      0.276005000000     0.052010000000     0.214986666667     0          
N11      N      0.220435000000     0.360215000000     0.129873333333     0          
C12      C      0.471535000000     0.235770000000     0.090350000000     0          
C13      C      0.472355000000     0.236175000000     0.173660000000     0          
C14      C      0.443440000000     0.221720000000     0.131983333333     0          
N15      N      0.447990000000     0.223995000000     0.214986666667     0          
C16      C      0.112405000000     0.306205000000     0.129726666667     0          
C17      C      0.027415000000     0.263705000000     0.089556666667     0          
C18      C      0.056620000000     0.278310000000     0.130446666667     0          
C19      C      0.028705000000     0.264355000000     0.172083333333     0          
C20      C      0.193795000000     0.306205000000     0.129726666667     0          
C21      C      0.236295000000     0.263705000000     0.089556666667     0          
C22      C      0.221690000000     0.278310000000     0.130446666667     0          
C23      C      0.235645000000     0.264355000000     0.172083333333     0          
C24      C      0.193795000000     0.387595000000     0.129726666667     0          
C25      C      0.236295000000     0.472585000000     0.089556666667     0          
C26      C      0.221690000000     0.443380000000     0.130446666667     0          
C27      C      0.235645000000     0.471295000000     0.172083333333     0          
N28      N      0.279570000000     0.139785000000     0.130723333333     0          
N29      N      0.360215000000     0.139785000000     0.130723333333     0          
N30      N      0.360215000000     0.220430000000     0.130723333333     0          
C31      C      0.306200000000     0.112400000000     0.130416666667     0          
C32      C      0.387600000000     0.193800000000     0.130416666667     0          
C33      C      0.306200000000     0.193800000000     0.130416666667     0          
H34      H      0.275870000000     0.224130000000     0.057103333333     0          
H35      H      0.297840000000     0.201830000000     0.217100000000     0          
H36      H      0.264100000000     0.236230000000     0.246566666667     0          
H37      H      0.275870000000     0.051740000000     0.057103333333     0          
H38      H      0.448260000000     0.224130000000     0.057103333333     0          
H39      H      0.403990000000     0.201830000000     0.217100000000     0          
H40      H      0.472130000000     0.236230000000     0.246566666667     0          
H41      H      0.049040000000     0.274520000000     0.055503333333     0          
H42      H      0.051430000000     0.275715000000     0.205610000000     0          
H43      H      0.225480000000     0.274520000000     0.055503333333     0          
H44      H      0.224285000000     0.275715000000     0.205610000000     0          
H45      H      0.225480000000     0.450960000000     0.055503333333     0          
H46      H      0.224285000000     0.448570000000     0.205610000000     0          
H47      H      0.297710000000     0.096080000000     0.214986666667     0          
H48      H      0.264775000000     0.030145000000     0.246646666667     0          
N1       N      0.139785000000     0.360215000000     0.463206666667     0          
C2       C      0.264230000000     0.235770000000     0.423683333333     0          
C3       C      0.263825000000     0.236175000000     0.506993333333     0          
C4       C      0.278280000000     0.221720000000     0.465316666667     0          
N5       N      0.276005000000     0.223995000000     0.548320000000     0          
N6       N      0.139785000000     0.279565000000     0.463206666667     0          
C7       C      0.264230000000     0.028465000000     0.423683333333     0          
C8       C      0.263825000000     0.027645000000     0.506993333333     0          
C9       C      0.278280000000     0.056560000000     0.465316666667     0          
N10      N      0.276005000000     0.052010000000     0.548320000000     0          
N11      N      0.220435000000     0.360215000000     0.463206666667     0          
C12      C      0.471535000000     0.235770000000     0.423683333333     0          
C13      C      0.472355000000     0.236175000000     0.506993333333     0          
C14      C      0.443440000000     0.221720000000     0.465316666667     0          
N15      N      0.447990000000     0.223995000000     0.548320000000     0          
C16      C      0.112405000000     0.306205000000     0.463060000000     0          
C17      C      0.027415000000     0.263705000000     0.422890000000     0          
C18      C      0.056620000000     0.278310000000     0.463780000000     0          
C19      C      0.028705000000     0.264355000000     0.505416666667     0          
C20      C      0.193795000000     0.306205000000     0.463060000000     0          
C21      C      0.236295000000     0.263705000000     0.422890000000     0          
C22      C      0.221690000000     0.278310000000     0.463780000000     0          
C23      C      0.235645000000     0.264355000000     0.505416666667     0          
C24      C      0.193795000000     0.387595000000     0.463060000000     0          
C25      C      0.236295000000     0.472585000000     0.422890000000     0          
C26      C      0.221690000000     0.443380000000     0.463780000000     0          
C27      C      0.235645000000     0.471295000000     0.505416666667     0          
N28      N      0.279570000000     0.139785000000     0.464056666667     0          
N29      N      0.360215000000     0.139785000000     0.464056666667     0          
N30      N      0.360215000000     0.220430000000     0.464056666667     0          
C31      C      0.306200000000     0.112400000000     0.463750000000     0          
C32      C      0.387600000000     0.193800000000     0.463750000000     0          
C33      C      0.306200000000     0.193800000000     0.463750000000     0          
H34      H      0.275870000000     0.224130000000     0.390436666667     0          
H35      H      0.297840000000     0.201830000000     0.550433333333     0          
H36      H      0.264100000000     0.236230000000     0.579900000000     0          
H37      H      0.275870000000     0.051740000000     0.390436666667     0          
H38      H      0.448260000000     0.224130000000     0.390436666667     0          
H39      H      0.403990000000     0.201830000000     0.550433333333     0          
H40      H      0.472130000000     0.236230000000     0.579900000000     0          
H41      H      0.049040000000     0.274520000000     0.388836666667     0          
H42      H      0.051430000000     0.275715000000     0.538943333333     0          
H43      H      0.225480000000     0.274520000000     0.388836666667     0          
H44      H      0.224285000000     0.275715000000     0.538943333333     0          
H45      H      0.225480000000     0.450960000000     0.388836666667     0          
H46      H      0.224285000000     0.448570000000     0.538943333333     0          
H47      H      0.297710000000     0.096080000000     0.548320000000     0          
H48      H      0.264775000000     0.030145000000     0.579980000000     0          
N1       N      0.139785000000     0.360215000000     0.796540000000     0          
C2       C      0.264230000000     0.235770000000     0.757016666667     0          
C3       C      0.263825000000     0.236175000000     0.840326666667     0          
C4       C      0.278280000000     0.221720000000     0.798650000000     0          
N5       N      0.276005000000     0.223995000000     0.881653333333     0          
N6       N      0.139785000000     0.279565000000     0.796540000000     0          
C7       C      0.264230000000     0.028465000000     0.757016666667     0          
C8       C      0.263825000000     0.027645000000     0.840326666667     0          
C9       C      0.278280000000     0.056560000000     0.798650000000     0          
N10      N      0.276005000000     0.052010000000     0.881653333333     0          
N11      N      0.220435000000     0.360215000000     0.796540000000     0          
C12      C      0.471535000000     0.235770000000     0.757016666667     0          
C13      C      0.472355000000     0.236175000000     0.840326666667     0          
C14      C      0.443440000000     0.221720000000     0.798650000000     0          
N15      N      0.447990000000     0.223995000000     0.881653333333     0          
C16      C      0.112405000000     0.306205000000     0.796393333333     0          
C17      C      0.027415000000     0.263705000000     0.756223333333     0          
C18      C      0.056620000000     0.278310000000     0.797113333333     0          
C19      C      0.028705000000     0.264355000000     0.838750000000     0          
C20      C      0.193795000000     0.306205000000     0.796393333333     0          
C21      C      0.236295000000     0.263705000000     0.756223333333     0          
C22      C      0.221690000000     0.278310000000     0.797113333333     0          
C23      C      0.235645000000     0.264355000000     0.838750000000     0          
C24      C      0.193795000000     0.387595000000     0.796393333333     0          
C25      C      0.236295000000     0.472585000000     0.756223333333     0          
C26      C      0.221690000000     0.443380000000     0.797113333333     0          
C27      C      0.235645000000     0.471295000000     0.838750000000     0          
N28      N      0.279570000000     0.139785000000     0.797390000000     0          
N29      N      0.360215000000     0.139785000000     0.797390000000     0          
N30      N      0.360215000000     0.220430000000     0.797390000000     0          
C31      C      0.306200000000     0.112400000000     0.797083333333     0          
C32      C      0.387600000000     0.193800000000     0.797083333333     0          
C33      C      0.306200000000     0.193800000000     0.797083333333     0          
H34      H      0.275870000000     0.224130000000     0.723770000000     0          
H35      H      0.297840000000     0.201830000000     0.883766666667     0          
H36      H      0.264100000000     0.236230000000     0.913233333333     0          
H37      H      0.275870000000     0.051740000000     0.723770000000     0          
H38      H      0.448260000000     0.224130000000     0.723770000000     0          
H39      H      0.403990000000     0.201830000000     0.883766666667     0          
H40      H      0.472130000000     0.236230000000     0.913233333333     0          
H41      H      0.049040000000     0.274520000000     0.722170000000     0          
H42      H      0.051430000000     0.275715000000     0.872276666667     0          
H43      H      0.225480000000     0.274520000000     0.722170000000     0          
H44      H      0.224285000000     0.275715000000     0.872276666667     0          
H45      H      0.225480000000     0.450960000000     0.722170000000     0          
H46      H      0.224285000000     0.448570000000     0.872276666667     0          
H47      H      0.297710000000     0.096080000000     0.881653333333     0          
H48      H      0.264775000000     0.030145000000     0.913313333333     0          
N1       N      0.139785000000     0.860215000000     0.129873333333     0          
C2       C      0.264230000000     0.735770000000     0.090350000000     0          
C3       C      0.263825000000     0.736175000000     0.173660000000     0          
C4       C      0.278280000000     0.721720000000     0.131983333333     0          
N5       N      0.276005000000     0.723995000000     0.214986666667     0          
N6       N      0.139785000000     0.779565000000     0.129873333333     0          
C7       C      0.264230000000     0.528465000000     0.090350000000     0          
C8       C      0.263825000000     0.527645000000     0.173660000000     0          
C9       C      0.278280000000     0.556560000000     0.131983333333     0          
N10      N      0.276005000000     0.552010000000     0.214986666667     0          
N11      N      0.220435000000     0.860215000000     0.129873333333     0          
C12      C      0.471535000000     0.735770000000     0.090350000000     0          
C13      C      0.472355000000     0.736175000000     0.173660000000     0          
C14      C      0.443440000000     0.721720000000     0.131983333333     0          
N15      N      0.447990000000     0.723995000000     0.214986666667     0          
C16      C      0.112405000000     0.806205000000     0.129726666667     0          
C17      C      0.027415000000     0.763705000000     0.089556666667     0          
C18      C      0.056620000000     0.778310000000     0.130446666667     0          
C19      C      0.028705000000     0.764355000000     0.172083333333     0          
C20      C      0.193795000000     0.806205000000     0.129726666667     0          
C21      C      0.236295000000     0.763705000000     0.089556666667     0          
C22      C      0.221690000000     0.778310000000     0.130446666667     0          
C23      C      0.235645000000     0.764355000000     0.172083333333     0          
C24      C      0.193795000000     0.887595000000     0.129726666667     0          
C25      C      0.236295000000     0.972585000000     0.089556666667     0          
C26      C      0.221690000000     0.943380000000     0.130446666667     0          
C27      C      0.235645000000     0.971295000000     0.172083333333     0          
N28      N      0.279570000000     0.639785000000     0.130723333333     0          
N29      N      0.360215000000     0.639785000000     0.130723333333     0          
N30      N      0.360215000000     0.720430000000     0.130723333333     0          
C31      C      0.306200000000     0.612400000000     0.130416666667     0          
C32      C      0.387600000000     0.693800000000     0.130416666667     0          
C33      C      0.306200000000     0.693800000000     0.130416666667     0          
H34      H      0.275870000000     0.724130000000     0.057103333333     0          
H35      H      0.297840000000     0.701830000000     0.217100000000     0          
H36      H      0.264100000000     0.736230000000     0.246566666667     0          
H37      H      0.275870000000     0.551740000000     0.057103333333     0          
H38      H      0.448260000000     0.724130000000     0.057103333333     0          
H39      H      0.403990000000     0.701830000000     0.217100000000     0          
H40      H      0.472130000000     0.736230000000     0.246566666667     0          
H41      H      0.049040000000     0.774520000000     0.055503333333     0          
H42      H      0.051430000000     0.775715000000     0.205610000000     0          
H43      H      0.225480000000     0.774520000000     0.055503333333     0          
H44      H      0.224285000000     0.775715000000     0.205610000000     0          
H45      H      0.225480000000     0.950960000000     0.055503333333     0          
H46      H      0.224285000000     0.948570000000     0.205610000000     0          
H47      H      0.297710000000     0.596080000000     0.214986666667     0          
H48      H      0.264775000000     0.530145000000     0.246646666667     0          
N1       N      0.139785000000     0.860215000000     0.463206666667     0          
C2       C      0.264230000000     0.735770000000     0.423683333333     0          
C3       C      0.263825000000     0.736175000000     0.506993333333     0          
C4       C      0.278280000000     0.721720000000     0.465316666667     0          
N5       N      0.276005000000     0.723995000000     0.548320000000     0          
N6       N      0.139785000000     0.779565000000     0.463206666667     0          
C7       C      0.264230000000     0.528465000000     0.423683333333     0          
C8       C      0.263825000000     0.527645000000     0.506993333333     0          
C9       C      0.278280000000     0.556560000000     0.465316666667     0          
N10      N      0.276005000000     0.552010000000     0.548320000000     0          
N11      N      0.220435000000     0.860215000000     0.463206666667     0          
C12      C      0.471535000000     0.735770000000     0.423683333333     0          
C13      C      0.472355000000     0.736175000000     0.506993333333     0          
C14      C      0.443440000000     0.721720000000     0.465316666667     0          
N15      N      0.447990000000     0.723995000000     0.548320000000     0          
C16      C      0.112405000000     0.806205000000     0.463060000000     0          
C17      C      0.027415000000     0.763705000000     0.422890000000     0          
C18      C      0.056620000000     0.778310000000     0.463780000000     0          
C19      C      0.028705000000     0.764355000000     0.505416666667     0          
C20      C      0.193795000000     0.806205000000     0.463060000000     0          
C21      C      0.236295000000     0.763705000000     0.422890000000     0          
C22      C      0.221690000000     0.778310000000     0.463780000000     0          
C23      C      0.235645000000     0.764355000000     0.505416666667     0          
C24      C      0.193795000000     0.887595000000     0.463060000000     0          
C25      C      0.236295000000     0.972585000000     0.422890000000     0          
C26      C      0.221690000000     0.943380000000     0.463780000000     0          
C27      C      0.235645000000     0.971295000000     0.505416666667     0          
N28      N      0.279570000000     0.639785000000     0.464056666667     0          
N29      N      0.360215000000     0.639785000000     0.464056666667     0          
N30      N      0.360215000000     0.720430000000     0.464056666667     0          
C31      C      0.306200000000     0.612400000000     0.463750000000     0          
C32      C      0.387600000000     0.693800000000     0.463750000000     0          
C33      C      0.306200000000     0.693800000000     0.463750000000     0          
H34      H      0.275870000000     0.724130000000     0.390436666667     0          
H35      H      0.297840000000     0.701830000000     0.550433333333     0          
H36      H      0.264100000000     0.736230000000     0.579900000000     0          
H37      H      0.275870000000     0.551740000000     0.390436666667     0          
H38      H      0.448260000000     0.724130000000     0.390436666667     0          
H39      H      0.403990000000     0.701830000000     0.550433333333     0          
H40      H      0.472130000000     0.736230000000     0.579900000000     0          
H41      H      0.049040000000     0.774520000000     0.388836666667     0          
H42      H      0.051430000000     0.775715000000     0.538943333333     0          
H43      H      0.225480000000     0.774520000000     0.388836666667     0          
H44      H      0.224285000000     0.775715000000     0.538943333333     0          
H45      H      0.225480000000     0.950960000000     0.388836666667     0          
H46      H      0.224285000000     0.948570000000     0.538943333333     0          
H47      H      0.297710000000     0.596080000000     0.548320000000     0          
H48      H      0.264775000000     0.530145000000     0.579980000000     0          
N1       N      0.139785000000     0.860215000000     0.796540000000     0          
C2       C      0.264230000000     0.735770000000     0.757016666667     0          
C3       C      0.263825000000     0.736175000000     0.840326666667     0          
C4       C      0.278280000000     0.721720000000     0.798650000000     0          
N5       N      0.276005000000     0.723995000000     0.881653333333     0          
N6       N      0.139785000000     0.779565000000     0.796540000000     0          
C7       C      0.264230000000     0.528465000000     0.757016666667     0          
C8       C      0.263825000000     0.527645000000     0.840326666667     0          
C9       C      0.278280000000     0.556560000000     0.798650000000     0          
N10      N      0.276005000000     0.552010000000     0.881653333333     0          
N11      N      0.220435000000     0.860215000000     0.796540000000     0          
C12      C      0.471535000000     0.735770000000     0.757016666667     0          
C13      C      0.472355000000     0.736175000000     0.840326666667     0          
C14      C      0.443440000000     0.721720000000     0.798650000000     0          
N15      N      0.447990000000     0.723995000000     0.881653333333     0          
C16      C      0.112405000000     0.806205000000     0.796393333333     0          
C17      C      0.027415000000     0.763705000000     0.756223333333     0          
C18      C      0.056620000000     0.778310000000     0.797113333333     0          
C19      C      0.028705000000     0.764355000000     0.838750000000     0          
C20      C      0.193795000000     0.806205000000     0.796393333333     0          
C21      C      0.236295000000     0.763705000000     0.756223333333     0          
C22      C      0.221690000000     0.778310000000     0.797113333333     0          
C23      C      0.235645000000     0.764355000000     0.838750000000     0          
C24      C      0.193795000000     0.887595000000     0.796393333333     0          
C25      C      0.236295000000     0.972585000000     0.756223333333     0          
C26      C      0.221690000000     0.943380000000     0.797113333333     0          
C27      C      0.235645000000     0.971295000000     0.838750000000     0          
N28      N      0.279570000000     0.639785000000     0.797390000000     0          
N29      N      0.360215000000     0.639785000000     0.797390000000     0          
N30      N      0.360215000000     0.720430000000     0.797390000000     0          
C31      C      0.306200000000     0.612400000000     0.797083333333     0          
C32      C      0.387600000000     0.693800000000     0.797083333333     0          
C33      C      0.306200000000     0.693800000000     0.797083333333     0          
H34      H      0.275870000000     0.724130000000     0.723770000000     0          
H35      H      0.297840000000     0.701830000000     0.883766666667     0          
H36      H      0.264100000000     0.736230000000     0.913233333333     0          
H37      H      0.275870000000     0.551740000000     0.723770000000     0          
H38      H      0.448260000000     0.724130000000     0.723770000000     0          
H39      H      0.403990000000     0.701830000000     0.883766666667     0          
H40      H      0.472130000000     0.736230000000     0.913233333333     0          
H41      H      0.049040000000     0.774520000000     0.722170000000     0          
H42      H      0.051430000000     0.775715000000     0.872276666667     0          
H43      H      0.225480000000     0.774520000000     0.722170000000     0          
H44      H      0.224285000000     0.775715000000     0.872276666667     0          
H45      H      0.225480000000     0.950960000000     0.722170000000     0          
H46      H      0.224285000000     0.948570000000     0.872276666667     0          
H47      H      0.297710000000     0.596080000000     0.881653333333     0          
H48      H      0.264775000000     0.530145000000     0.913313333333     0          
N1       N      0.639785000000     0.360215000000     0.129873333333     0          
C2       C      0.764230000000     0.235770000000     0.090350000000     0          
C3       C      0.763825000000     0.236175000000     0.173660000000     0          
C4       C      0.778280000000     0.221720000000     0.131983333333     0          
N5       N      0.776005000000     0.223995000000     0.214986666667     0          
N6       N      0.639785000000     0.279565000000     0.129873333333     0          
C7       C      0.764230000000     0.028465000000     0.090350000000     0          
C8       C      0.763825000000     0.027645000000     0.173660000000     0          
C9       C      0.778280000000     0.056560000000     0.131983333333     0          
N10      N      0.776005000000     0.052010000000     0.214986666667     0          
N11      N      0.720435000000     0.360215000000     0.129873333333     0          
C12      C      0.971535000000     0.235770000000     0.090350000000     0          
C13      C      0.972355000000     0.236175000000     0.173660000000     0          
C14      C      0.943440000000     0.221720000000     0.131983333333     0          
N15      N      0.947990000000     0.223995000000     0.214986666667     0          
C16      C      0.612405000000     0.306205000000     0.129726666667     0          
C17      C      0.527415000000     0.263705000000     0.089556666667     0          
C18      C      0.556620000000     0.278310000000     0.130446666667     0          
C19      C      0.528705000000     0.264355000000     0.172083333333     0          
C20      C      0.693795000000     0.306205000000     0.129726666667     0          
C21      C      0.736295000000     0.263705000000     0.089556666667     0          
C22      C      0.721690000000     0.278310000000     0.130446666667     0          
C23      C      0.735645000000     0.264355000000     0.172083333333     0          
C24      C      0.693795000000     0.387595000000     0.129726666667     0          
C25      C      0.736295000000     0.472585000000     0.089556666667     0          
C26      C      0.721690000000     0.443380000000     0.130446666667     0          
C27      C      0.735645000000     0.471295000000     0.172083333333     0          
N28      N      0.779570000000     0.139785000000     0.130723333333     0          
N29      N      0.860215000000     0.139785000000     0.130723333333     0          
N30      N      0.860215000000     0.220430000000     0.130723333333     0          
C31      C      0.806200000000     0.112400000000     0.130416666667     0          
C32      C      0.887600000000     0.193800000000     0.130416666667     0          
C33      C      0.806200000000     0.193800000000     0.130416666667     0          
H34      H      0.775870000000     0.224130000000     0.057103333333     0          
H35      H      0.797840000000     0.201830000000     0.217100000000     0          
H36      H      0.764100000000     0.236230000000     0.246566666667     0          
H37      H      0.775870000000     0.051740000000     0.057103333333     0          
H38      H      0.948260000000     0.224130000000     0.057103333333     0          
H39      H      0.903990000000     0.201830000000     0.217100000000     0          
H40      H      0.972130000000     0.236230000000     0.246566666667     0          
H41      H      0.549040000000     0.274520000000     0.055503333333     0          
H42      H      0.551430000000     0.275715000000     0.205610000000     0          
H43      H      0.725480000000     0.274520000000     0.055503333333     0          
H44      H      0.724285000000     0.275715000000     0.205610000000     0          
H45      H      0.725480000000     0.450960000000     0.055503333333     0          
H46      H      0.724285000000     0.448570000000     0.205610000000     0          
H47      H      0.797710000000     0.096080000000     0.214986666667     0          
H48      H      0.764775000000     0.030145000000     0.246646666667     0          
N1       N      0.639785000000     0.360215000000     0.463206666667     0          
C2       C      0.764230000000     0.235770000000     0.423683333333     0          
C3       C      0.763825000000     0.236175000000     0.506993333333     0          
C4       C      0.778280000000     0.221720000000     0.465316666667     0          
N5       N      0.776005000000     0.223995000000     0.548320000000     0          
N6       N      0.639785000000     0.279565000000     0.463206666667     0          
C7       C      0.764230000000     0.028465000000     0.423683333333     0          
C8       C      0.763825000000     0.027645000000     0.506993333333     0          
C9       C      0.778280000000     0.056560000000     0.465316666667     0          
N10      N      0.776005000000     0.052010000000     0.548320000000     0          
N11      N      0.720435000000     0.360215000000     0.463206666667     0          
C12      C      0.971535000000     0.235770000000     0.423683333333     0          
C13      C      0.972355000000     0.236175000000     0.506993333333     0          
C14      C      0.943440000000     0.221720000000     0.465316666667     0          
N15      N      0.947990000000     0.223995000000     0.548320000000     0          
C16      C      0.612405000000     0.306205000000     0.463060000000     0          
C17      C      0.527415000000     0.263705000000     0.422890000000     0          
C18      C      0.556620000000     0.278310000000     0.463780000000     0          
C19      C      0.528705000000     0.264355000000     0.505416666667     0          
C20      C      0.693795000000     0.306205000000     0.463060000000     0          
C21      C      0.736295000000     0.263705000000     0.422890000000     0          
C22      C      0.721690000000     0.278310000000     0.463780000000     0          
C23      C      0.735645000000     0.264355000000     0.505416666667     0          
C24      C      0.693795000000     0.387595000000     0.463060000000     0          
C25      C      0.736295000000     0.472585000000     0.422890000000     0          
C26      C      0.721690000000     0.443380000000     0.463780000000     0          
C27      C      0.735645000000     0.471295000000     0.505416666667     0          
N28      N      0.779570000000     0.139785000000     0.464056666667     0          
N29      N      0.860215000000     0.139785000000     0.464056666667     0          
N30      N      0.860215000000     0.220430000000     0.464056666667     0          
C31      C      0.806200000000     0.112400000000     0.463750000000     0          
C32      C      0.887600000000     0.193800000000     0.463750000000     0          
C33      C      0.806200000000     0.193800000000     0.463750000000     0          
H34      H      0.775870000000     0.224130000000     0.390436666667     0          
H35      H      0.797840000000     0.201830000000     0.550433333333     0          
H36      H      0.764100000000     0.236230000000     0.579900000000     0          
H37      H      0.775870000000     0.051740000000     0.390436666667     0          
H38      H      0.948260000000     0.224130000000     0.390436666667     0          
H39      H      0.903990000000     0.201830000000     0.550433333333     0          
H40      H      0.972130000000     0.236230000000     0.579900000000     0          
H41      H      0.549040000000     0.274520000000     0.388836666667     0          
H42      H      0.551430000000     0.275715000000     0.538943333333     0          
H43      H      0.725480000000     0.274520000000     0.388836666667     0          
H44      H      0.724285000000     0.275715000000     0.538943333333     0          
H45      H      0.725480000000     0.450960000000     0.388836666667     0          
H46      H      0.724285000000     0.448570000000     0.538943333333     0          
H47      H      0.797710000000     0.096080000000     0.548320000000     0          
H48      H      0.764775000000     0.030145000000     0.579980000000     0          
N1       N      0.639785000000     0.360215000000     0.796540000000     0          
C2       C      0.764230000000     0.235770000000     0.757016666667     0          
C3       C      0.763825000000     0.236175000000     0.840326666667     0          
C4       C      0.778280000000     0.221720000000     0.798650000000     0          
N5       N      0.776005000000     0.223995000000     0.881653333333     0          
N6       N      0.639785000000     0.279565000000     0.796540000000     0          
C7       C      0.764230000000     0.028465000000     0.757016666667     0          
C8       C      0.763825000000     0.027645000000     0.840326666667     0          
C9       C      0.778280000000     0.056560000000     0.798650000000     0          
N10      N      0.776005000000     0.052010000000     0.881653333333     0          
N11      N      0.720435000000     0.360215000000     0.796540000000     0          
C12      C      0.971535000000     0.235770000000     0.757016666667     0          
C13      C      0.972355000000     0.236175000000     0.840326666667     0          
C14      C      0.943440000000     0.221720000000     0.798650000000     0          
N15      N      0.947990000000     0.223995000000     0.881653333333     0          
C16      C      0.612405000000     0.306205000000     0.796393333333     0          
C17      C      0.527415000000     0.263705000000     0.756223333333     0          
C18      C      0.556620000000     0.278310000000     0.797113333333     0          
C19      C      0.528705000000     0.264355000000     0.838750000000     0          
C20      C      0.693795000000     0.306205000000     0.796393333333     0          
C21      C      0.736295000000     0.263705000000     0.756223333333     0          
C22      C      0.721690000000     0.278310000000     0.797113333333     0          
C23      C      0.735645000000     0.264355000000     0.838750000000     0          
C24      C      0.693795000000     0.387595000000     0.796393333333     0          
C25      C      0.736295000000     0.472585000000     0.756223333333     0          
C26      C      0.721690000000     0.443380000000     0.797113333333     0          
C27      C      0.735645000000     0.471295000000     0.838750000000     0          
N28      N      0.779570000000     0.139785000000     0.797390000000     0          
N29      N      0.860215000000     0.139785000000     0.797390000000     0          
N30      N      0.860215000000     0.220430000000     0.797390000000     0          
C31      C      0.806200000000     0.112400000000     0.797083333333     0          
C32      C      0.887600000000     0.193800000000     0.797083333333     0          
C33      C      0.806200000000     0.193800000000     0.797083333333     0          
H34      H      0.775870000000     0.224130000000     0.723770000000     0          
H35      H      0.797840000000     0.201830000000     0.883766666667     0          
H36      H      0.764100000000     0.236230000000     0.913233333333     0          
H37      H      0.775870000000     0.051740000000     0.723770000000     0          
H38      H      0.948260000000     0.224130000000     0.723770000000     0          
H39      H      0.903990000000     0.201830000000     0.883766666667     0          
H40      H      0.972130000000     0.236230000000     0.913233333333     0          
H41      H      0.549040000000     0.274520000000     0.722170000000     0          
H42      H      0.551430000000     0.275715000000     0.872276666667     0          
H43      H      0.725480000000     0.274520000000     0.722170000000     0          
H44      H      0.724285000000     0.275715000000     0.872276666667     0          
H45      H      0.725480000000     0.450960000000     0.722170000000     0          
H46      H      0.724285000000     0.448570000000     0.872276666667     0          
H47      H      0.797710000000     0.096080000000     0.881653333333     0          
H48      H      0.764775000000     0.030145000000     0.913313333333     0          
N1       N      0.639785000000     0.860215000000     0.129873333333     0          
C2       C      0.764230000000     0.735770000000     0.090350000000     0          
C3       C      0.763825000000     0.736175000000     0.173660000000     0          
C4       C      0.778280000000     0.721720000000     0.131983333333     0          
N5       N      0.776005000000     0.723995000000     0.214986666667     0          
N6       N      0.639785000000     0.779565000000     0.129873333333     0          
C7       C      0.764230000000     0.528465000000     0.090350000000     0          
C8       C      0.763825000000     0.527645000000     0.173660000000     0          
C9       C      0.778280000000     0.556560000000     0.131983333333     0          
N10      N      0.776005000000     0.552010000000     0.214986666667     0          
N11      N      0.720435000000     0.860215000000     0.129873333333     0          
C12      C      0.971535000000     0.735770000000     0.090350000000     0          
C13      C      0.972355000000     0.736175000000     0.173660000000     0          
C14      C      0.943440000000     0.721720000000     0.131983333333     0          
N15      N      0.947990000000     0.723995000000     0.214986666667     0          
C16      C      0.612405000000     0.806205000000     0.129726666667     0          
C17      C      0.527415000000     0.763705000000     0.089556666667     0          
C18      C      0.556620000000     0.778310000000     0.130446666667     0          
C19      C      0.528705000000     0.764355000000     0.172083333333     0          
C20      C      0.693795000000     0.806205000000     0.129726666667     0          
C21      C      0.736295000000     0.763705000000     0.089556666667     0          
C22      C      0.721690000000     0.778310000000     0.130446666667     0          
C23      C      0.735645000000     0.764355000000     0.172083333333     0          
C24      C      0.693795000000     0.887595000000     0.129726666667     0          
C25      C      0.736295000000     0.972585000000     0.089556666667     0          
C26      C      0.721690000000     0.943380000000     0.130446666667     0          
C27      C      0.735645000000     0.971295000000     0.172083333333     0          
N28      N      0.779570000000     0.639785000000     0.130723333333     0          
N29      N      0.860215000000     0.639785000000     0.130723333333     0          
N30      N      0.860215000000     0.720430000000     0.130723333333     0          
C31      C      0.806200000000     0.612400000000     0.130416666667     0          
C32      C      0.887600000000     0.693800000000     0.130416666667     0          
C33      C      0.806200000000     0.693800000000     0.130416666667     0          
H34      H      0.775870000000     0.724130000000     0.057103333333     0          
H35      H      0.797840000000     0.701830000000     0.217100000000     0          
H36      H      0.764100000000     0.736230000000     0.246566666667     0          
H37      H      0.775870000000     0.551740000000     0.057103333333     0          
H38      H      0.948260000000     0.724130000000     0.057103333333     0          
H39      H      0.903990000000     0.701830000000     0.217100000000     0          
H40      H      0.972130000000     0.736230000000     0.246566666667     0          
H41      H      0.549040000000     0.774520000000     0.055503333333     0          
H42      H      0.551430000000     0.775715000000     0.205610000000     0          
H43      H      0.725480000000     0.774520000000     0.055503333333     0          
H44      H      0.724285000000     0.775715000000     0.205610000000     0          
H45      H      0.725480000000     0.950960000000     0.055503333333     0          
H46      H      0.724285000000     0.948570000000     0.205610000000     0          
H47      H      0.797710000000     0.596080000000     0.214986666667     0          
H48      H      0.764775000000     0.530145000000     0.246646666667     0          
N1       N      0.639785000000     0.860215000000     0.463206666667     0          
C2       C      0.764230000000     0.735770000000     0.423683333333     0          
C3       C      0.763825000000     0.736175000000     0.506993333333     0          
C4       C      0.778280000000     0.721720000000     0.465316666667     0          
N5       N      0.776005000000     0.723995000000     0.548320000000     0          
N6       N      0.639785000000     0.779565000000     0.463206666667     0          
C7       C      0.764230000000     0.528465000000     0.423683333333     0          
C8       C      0.763825000000     0.527645000000     0.506993333333     0          
C9       C      0.778280000000     0.556560000000     0.465316666667     0          
N10      N      0.776005000000     0.552010000000     0.548320000000     0          
N11      N      0.720435000000     0.860215000000     0.463206666667     0          
C12      C      0.971535000000     0.735770000000     0.423683333333     0          
C13      C      0.972355000000     0.736175000000     0.506993333333     0          
C14      C      0.943440000000     0.721720000000     0.465316666667     0          
N15      N      0.947990000000     0.723995000000     0.548320000000     0          
C16      C      0.612405000000     0.806205000000     0.463060000000     0          
C17      C      0.527415000000     0.763705000000     0.422890000000     0          
C18      C      0.556620000000     0.778310000000     0.463780000000     0          
C19      C      0.528705000000     0.764355000000     0.505416666667     0          
C20      C      0.693795000000     0.806205000000     0.463060000000     0          
C21      C      0.736295000000     0.763705000000     0.422890000000     0          
C22      C      0.721690000000     0.778310000000     0.463780000000     0          
C23      C      0.735645000000     0.764355000000     0.505416666667     0          
C24      C      0.693795000000     0.887595000000     0.463060000000     0          
C25      C      0.736295000000     0.972585000000     0.422890000000     0          
C26      C      0.721690000000     0.943380000000     0.463780000000     0          
C27      C      0.735645000000     0.971295000000     0.505416666667     0          
N28      N      0.779570000000     0.639785000000     0.464056666667     0          
N29      N      0.860215000000     0.639785000000     0.464056666667     0          
N30      N      0.860215000000     0.720430000000     0.464056666667     0          
C31      C      0.806200000000     0.612400000000     0.463750000000     0          
C32      C      0.887600000000     0.693800000000     0.463750000000     0          
C33      C      0.806200000000     0.693800000000     0.463750000000     0          
H34      H      0.775870000000     0.724130000000     0.390436666667     0          
H35      H      0.797840000000     0.701830000000     0.550433333333     0          
H36      H      0.764100000000     0.736230000000     0.579900000000     0          
H37      H      0.775870000000     0.551740000000     0.390436666667     0          
H38      H      0.948260000000     0.724130000000     0.390436666667     0          
H39      H      0.903990000000     0.701830000000     0.550433333333     0          
H40      H      0.972130000000     0.736230000000     0.579900000000     0          
H41      H      0.549040000000     0.774520000000     0.388836666667     0          
H42      H      0.551430000000     0.775715000000     0.538943333333     0          
H43      H      0.725480000000     0.774520000000     0.388836666667     0          
H44      H      0.724285000000     0.775715000000     0.538943333333     0          
H45      H      0.725480000000     0.950960000000     0.388836666667     0          
H46      H      0.724285000000     0.948570000000     0.538943333333     0          
H47      H      0.797710000000     0.596080000000     0.548320000000     0          
H48      H      0.764775000000     0.530145000000     0.579980000000     0          
N1       N      0.639785000000     0.860215000000     0.796540000000     0          
C2       C      0.764230000000     0.735770000000     0.757016666667     0          
C3       C      0.763825000000     0.736175000000     0.840326666667     0          
C4       C      0.778280000000     0.721720000000     0.798650000000     0          
N5       N      0.776005000000     0.723995000000     0.881653333333     0          
N6       N      0.639785000000     0.779565000000     0.796540000000     0          
C7       C      0.764230000000     0.528465000000     0.757016666667     0          
C8       C      0.763825000000     0.527645000000     0.840326666667     0          
C9       C      0.778280000000     0.556560000000     0.798650000000     0          
N10      N      0.776005000000     0.552010000000     0.881653333333     0          
N11      N      0.720435000000     0.860215000000     0.796540000000     0          
C12      C      0.971535000000     0.735770000000     0.757016666667     0          
C13      C      0.972355000000     0.736175000000     0.840326666667     0          
C14      C      0.943440000000     0.721720000000     0.798650000000     0          
N15      N      0.947990000000     0.723995000000     0.881653333333     0          
C16      C      0.612405000000     0.806205000000     0.796393333333     0          
C17      C      0.527415000000     0.763705000000     0.756223333333     0          
C18      C      0.556620000000     0.778310000000     0.797113333333     0          
C19      C      0.528705000000     0.764355000000     0.838750000000     0          
C20      C      0.693795000000     0.806205000000     0.796393333333     0          
C21      C      0.736295000000     0.763705000000     0.756223333333     0          
C22      C      0.721690000000     0.778310000000     0.797113333333     0          
C23      C      0.735645000000     0.764355000000     0.838750000000     0          
C24      C      0.693795000000     0.887595000000     0.796393333333     0          
C25      C      0.736295000000     0.972585000000     0.756223333333     0          
C26      C      0.721690000000     0.943380000000     0.797113333333     0          
C27      C      0.735645000000     0.971295000000     0.838750000000     0          
N28      N      0.779570000000     0.639785000000     0.797390000000     0          
N29      N      0.860215000000     0.639785000000     0.797390000000     0          
N30      N      0.860215000000     0.720430000000     0.797390000000     0          
C31      C      0.806200000000     0.612400000000     0.797083333333     0          
C32      C      0.887600000000     0.693800000000     0.797083333333     0          
C33      C      0.806200000000     0.693800000000     0.797083333333     0          
H34      H      0.775870000000     0.724130000000     0.723770000000     0          
H35      H      0.797840000000     0.701830000000     0.883766666667     0          
H36      H      0.764100000000     0.736230000000     0.913233333333     0          
H37      H      0.775870000000     0.551740000000     0.723770000000     0          
H38      H      0.948260000000     0.724130000000     0.723770000000     0          
H39      H      0.903990000000     0.701830000000     0.883766666667     0          
H40      H      0.972130000000     0.736230000000     0.913233333333     0          
H41      H      0.549040000000     0.774520000000     0.722170000000     0          
H42      H      0.551430000000     0.775715000000     0.872276666667     0          
H43      H      0.725480000000     0.774520000000     0.722170000000     0          
H44      H      0.724285000000     0.775715000000     0.872276666667     0          
H45      H      0.725480000000     0.950960000000     0.722170000000     0          
H46      H      0.724285000000     0.948570000000     0.872276666667     0          
H47      H      0.797710000000     0.596080000000     0.881653333333     0          
H48      H      0.764775000000     0.530145000000     0.913313333333     0          


